download/pglib-opf-master/api/pglib_opf_case2736sp_k__api.m
%%%%%%%%%%%%%%%%%%%%%%%%%%%%%%%%%%%%%%%%%%%%%%%%%%%%%%%%%%%%%%%%%%%%%%%%%%%
%%%%                                                                  %%%%%
%%%%    IEEE PES Power Grid Library - Optimal Power Flow - v19.05     %%%%%
%%%%          (https://github.com/power-grid-lib/pglib-opf)           %%%%%
%%%%             Benchmark Group - Active Power Increase              %%%%%
%%%%                         08 - May - 2019                          %%%%%
%%%%                                                                  %%%%%
%%%%%%%%%%%%%%%%%%%%%%%%%%%%%%%%%%%%%%%%%%%%%%%%%%%%%%%%%%%%%%%%%%%%%%%%%%%
function mpc = pglib_opf_case2736sp_k__api
mpc.version = '2';
mpc.baseMVA = 100.0;

%% bus data
%	bus_i	type	Pd	Qd	Gs	Bs	area	Vm	Va	baseKV	zone	Vmax	Vmin
mpc.bus = [
	1	 1	 0.0	 0.0	 0.0	 0.0	 1	    1.03000	    0.00000	 220.0	 1	    1.11000	    0.95000;
	2	 1	 0.0	 0.0	 0.0	 0.0	 1	    1.03000	    0.00000	 220.0	 1	    1.11000	    0.95000;
	3	 1	 0.0	 0.0	 0.0	 0.0	 1	    1.03000	    0.00000	 220.0	 1	    1.11000	    0.95000;
	4	 1	 0.0	 0.0	 0.0	 0.0	 1	    1.03000	    0.00000	 220.0	 1	    1.11000	    0.95000;
	5	 1	 0.0	 0.0	 0.0	 0.0	 1	    1.03000	    0.00000	 220.0	 1	    1.11000	    0.95000;
	6	 1	 0.0	 0.0	 0.0	 0.0	 1	    1.03000	    0.00000	 220.0	 1	    1.11000	    0.95000;
	7	 1	 0.0	 0.0	 0.0	 0.0	 1	    1.03000	    0.00000	 220.0	 1	    1.11000	    0.95000;
	8	 1	 0.0	 0.0	 0.0	 0.0	 1	    1.00000	    0.00000	 400.0	 1	    1.05000	    0.95000;
	9	 1	 0.0	 0.0	 0.0	 0.0	 1	    1.00000	    0.00000	 400.0	 1	    1.05000	    0.95000;
	10	 1	 0.0	 0.0	 0.0	 0.0	 1	    1.03000	    0.00000	 220.0	 1	    1.11000	    0.95000;
	11	 1	 0.0	 0.0	 0.0	 0.0	 1	    1.03000	    0.00000	 220.0	 1	    1.11000	    0.95000;
	12	 1	 0.0	 0.0	 0.0	 0.0	 1	    1.03000	    0.00000	 220.0	 1	    1.11000	    0.95000;
	13	 1	 0.0	 0.0	 0.0	 0.0	 1	    1.03000	    0.00000	 220.0	 1	    1.11000	    0.95000;
	14	 1	 0.0	 0.0	 0.0	 0.0	 1	    1.00000	    0.00000	 400.0	 1	    1.05000	    0.95000;
	15	 1	 0.0	 0.0	 0.0	 0.0	 1	    1.00000	    0.00000	 400.0	 1	    1.05000	    0.95000;
	16	 1	 0.0	 0.0	 0.0	 0.0	 1	    1.00000	    0.00000	 400.0	 1	    1.05000	    0.95000;
	17	 2	 0.0	 0.0	 0.0	 0.0	 1	    1.03000	    0.00000	 220.0	 1	    1.11000	    0.95000;
	18	 1	 0.0	 0.0	 0.0	 0.0	 1	    1.03000	    0.00000	 220.0	 1	    1.11000	    0.95000;
	19	 1	 0.0	 0.0	 0.0	 0.0	 1	    1.03000	    0.00000	 220.0	 1	    1.11000	    0.95000;
	20	 1	 0.0	 0.0	 0.0	 0.0	 1	    1.03000	    0.00000	 220.0	 1	    1.11000	    0.95000;
	21	 1	 0.0	 0.0	 0.0	 0.0	 1	    1.03000	    0.00000	 220.0	 1	    1.11000	    0.95000;
	22	 1	 0.0	 0.0	 0.0	 0.0	 1	    1.03000	    0.00000	 220.0	 1	    1.11000	    0.95000;
	23	 1	 0.0	 0.0	 0.0	 0.0	 1	    1.03000	    0.00000	 220.0	 1	    1.11000	    0.95000;
	24	 1	 0.0	 0.0	 0.0	 0.0	 1	    1.03000	    0.00000	 220.0	 1	    1.11000	    0.95000;
	25	 1	 0.0	 0.0	 0.0	 0.0	 1	    1.00000	    0.00000	 400.0	 1	    1.05000	    0.95000;
	26	 2	 91.79	 72.05	 0.0	 0.0	 1	    1.03000	    0.00000	 220.0	 1	    1.11000	    0.95000;
	27	 2	 126.95	 122.06	 0.0	 0.0	 1	    1.03000	    0.00000	 220.0	 1	    1.11000	    0.95000;
	28	 3	 73.30	 74.00	 0.0	 0.0	 1	    1.00000	    0.00000	 400.0	 1	    1.05000	    0.95000;
	29	 2	 73.30	 74.00	 0.0	 0.0	 1	    1.00000	    0.00000	 400.0	 1	    1.05000	    0.95000;
	30	 1	 0.0	 0.0	 0.0	 0.0	 1	    1.03000	    0.00000	 220.0	 1	    1.11000	    0.95000;
	31	 1	 0.0	 0.0	 0.0	 0.0	 1	    1.00000	    0.00000	 400.0	 1	    1.05000	    0.95000;
	32	 1	 0.0	 0.0	 0.0	 0.0	 1	    1.03000	    0.00000	 220.0	 1	    1.11000	    0.95000;
	33	 1	 0.0	 0.0	 0.0	 0.0	 1	    1.03000	    0.00000	 220.0	 1	    1.11000	    0.95000;
	34	 1	 0.0	 0.0	 0.0	 0.0	 1	    1.03000	    0.00000	 220.0	 2	    1.11000	    0.95000;
	35	 1	 0.0	 0.0	 0.0	 0.0	 1	    1.03000	    0.00000	 220.0	 2	    1.11000	    0.95000;
	36	 1	 0.0	 0.0	 0.0	 0.0	 1	    1.03000	    0.00000	 220.0	 2	    1.11000	    0.95000;
	37	 1	 0.0	 0.0	 0.0	 0.0	 1	    1.03000	    0.00000	 220.0	 2	    1.11000	    0.95000;
	38	 1	 0.0	 0.0	 0.0	 0.0	 1	    1.03000	    0.00000	 220.0	 2	    1.11000	    0.95000;
	39	 1	 0.0	 0.0	 0.0	 0.0	 1	    1.03000	    0.00000	 220.0	 2	    1.11000	    0.95000;
	40	 1	 0.0	 0.0	 0.0	 0.0	 1	    1.03000	    0.00000	 220.0	 2	    1.11000	    0.95000;
	41	 1	 0.0	 0.0	 0.0	 0.0	 1	    1.00000	    0.00000	 400.0	 2	    1.05000	    0.95000;
	42	 2	 25.00	 0.00	 0.0	 0.0	 1	    1.03000	    0.00000	 220.0	 2	    1.11000	    0.95000;
	43	 2	 26.00	 0.00	 0.0	 0.0	 1	    1.03000	    0.00000	 220.0	 2	    1.11000	    0.95000;
	44	 2	 25.00	 0.00	 0.0	 0.0	 1	    1.00000	    0.00000	 400.0	 2	    1.05000	    0.95000;
	45	 1	 0.0	 0.0	 0.0	 0.0	 1	    1.00000	    0.00000	 400.0	 2	    1.05000	    0.95000;
	46	 1	 0.0	 0.0	 0.0	 0.0	 1	    1.03000	    0.00000	 220.0	 2	    1.11000	    0.95000;
	47	 1	 0.0	 0.0	 0.0	 0.0	 1	    1.00000	    0.00000	 400.0	 2	    1.05000	    0.95000;
	48	 1	 0.0	 0.0	 0.0	 0.0	 1	    1.00000	    0.00000	 400.0	 2	    1.05000	    0.95000;
	49	 1	 0.0	 0.0	 0.0	 0.0	 1	    1.00000	    0.00000	 400.0	 2	    1.05000	    0.95000;
	50	 1	 0.0	 0.0	 0.0	 0.0	 1	    1.03000	    0.00000	 220.0	 2	    1.11000	    0.95000;
	51	 1	 0.0	 0.0	 0.0	 0.0	 1	    1.03000	    0.00000	 220.0	 2	    1.11000	    0.95000;
	52	 1	 0.0	 0.0	 0.0	 0.0	 1	    1.00000	    0.00000	 400.0	 2	    1.05000	    0.95000;
	53	 1	 0.0	 0.0	 0.0	 0.0	 1	    1.00000	    0.00000	 400.0	 2	    1.05000	    0.95000;
	54	 2	 13.00	 0.00	 0.0	 0.0	 1	    1.03000	    0.00000	 220.0	 2	    1.11000	    0.95000;
	55	 2	 13.00	 0.00	 0.0	 0.0	 1	    1.03000	    0.00000	 220.0	 2	    1.11000	    0.95000;
	56	 2	 13.00	 0.00	 0.0	 0.0	 1	    1.00000	    0.00000	 400.0	 2	    1.05000	    0.95000;
	57	 2	 26.00	 0.00	 0.0	 0.0	 1	    1.00000	    0.00000	 400.0	 2	    1.05000	    0.95000;
	58	 2	 133.24	 40.00	 0.0	 0.0	 1	    1.03000	    0.00000	 220.0	 2	    1.11000	    0.95000;
	59	 1	 0.0	 0.0	 0.0	 0.0	 1	    1.03000	    0.00000	 220.0	 2	    1.11000	    0.95000;
	60	 1	 0.0	 0.0	 0.0	 0.0	 1	    1.03000	    0.00000	 220.0	 2	    1.11000	    0.95000;
	61	 1	 0.0	 0.0	 0.0	 0.0	 1	    1.03000	    0.00000	 220.0	 2	    1.11000	    0.95000;
	62	 1	 0.0	 0.0	 0.0	 0.0	 1	    1.03000	    0.00000	 220.0	 2	    1.11000	    0.95000;
	63	 1	 0.0	 0.0	 0.0	 0.0	 1	    1.00000	    0.00000	 400.0	 2	    1.05000	    0.95000;
	64	 1	 0.0	 0.0	 0.0	 0.0	 1	    1.00000	    0.00000	 400.0	 2	    1.05000	    0.95000;
	65	 1	 0.0	 0.0	 0.0	 0.0	 1	    1.03000	    0.00000	 220.0	 2	    1.11000	    0.95000;
	66	 1	 0.0	 0.0	 0.0	 0.0	 1	    1.03000	    0.00000	 220.0	 2	    1.11000	    0.95000;
	67	 1	 0.0	 0.0	 0.0	 0.0	 1	    1.03000	    0.00000	 220.0	 2	    1.11000	    0.95000;
	68	 1	 0.0	 0.0	 0.0	 0.0	 1	    1.03000	    0.00000	 220.0	 3	    1.11000	    0.95000;
	69	 1	 10.33	 0.00	 0.0	 0.0	 1	    1.03000	    0.00000	 220.0	 3	    1.11000	    0.95000;
	70	 1	 12.02	 3.71	 0.0	 0.0	 1	    1.03000	    0.00000	 220.0	 3	    1.11000	    0.95000;
	71	 1	 0.0	 0.0	 0.0	 0.0	 1	    1.03000	    0.00000	 220.0	 3	    1.11000	    0.95000;
	72	 1	 0.0	 0.0	 0.0	 0.0	 1	    1.03000	    0.00000	 220.0	 3	    1.11000	    0.95000;
	73	 1	 0.0	 0.0	 0.0	 0.0	 1	    1.03000	    0.00000	 220.0	 3	    1.11000	    0.95000;
	74	 1	 0.0	 0.0	 0.0	 0.0	 1	    1.03000	    0.00000	 220.0	 3	    1.11000	    0.95000;
	75	 1	 0.0	 0.0	 0.0	 0.0	 1	    1.03000	    0.00000	 220.0	 3	    1.11000	    0.95000;
	76	 1	 0.0	 0.0	 0.0	 0.0	 1	    1.03000	    0.00000	 220.0	 3	    1.11000	    0.95000;
	77	 2	 40.39	 70.00	 0.0	 0.0	 1	    1.03000	    0.00000	 220.0	 3	    1.11000	    0.95000;
	78	 2	 27.97	 42.00	 0.0	 0.0	 1	    1.03000	    0.00000	 220.0	 3	    1.11000	    0.95000;
	79	 1	 7.38	 0.82	 0.0	 0.0	 1	    1.03000	    0.00000	 220.0	 3	    1.11000	    0.95000;
	80	 1	 0.0	 0.0	 0.0	 0.0	 1	    1.03000	    0.00000	 220.0	 3	    1.11000	    0.95000;
	81	 2	 26.93	 57.00	 0.0	 0.0	 1	    1.00000	    0.00000	 400.0	 3	    1.05000	    0.95000;
	82	 1	 0.0	 0.0	 0.0	 0.0	 1	    1.03000	    0.00000	 220.0	 3	    1.11000	    0.95000;
	83	 1	 0.0	 0.0	 0.0	 0.0	 1	    1.03000	    0.00000	 220.0	 3	    1.11000	    0.95000;
	84	 1	 0.0	 0.0	 0.0	 0.0	 1	    1.03000	    0.00000	 220.0	 3	    1.11000	    0.95000;
	85	 1	 44.86	 -6.40	 0.0	 0.0	 1	    1.03000	    0.00000	 220.0	 3	    1.11000	    0.95000;
	86	 1	 0.0	 0.0	 0.0	 0.0	 1	    1.03000	    0.00000	 220.0	 3	    1.11000	    0.95000;
	87	 1	 0.0	 0.0	 0.0	 0.0	 1	    1.03000	    0.00000	 220.0	 3	    1.11000	    0.95000;
	88	 1	 0.0	 0.0	 0.0	 0.0	 1	    1.03000	    0.00000	 220.0	 3	    1.11000	    0.95000;
	89	 1	 0.0	 0.0	 0.0	 0.0	 1	    1.03000	    0.00000	 220.0	 3	    1.11000	    0.95000;
	90	 1	 0.0	 0.0	 0.0	 0.0	 1	    1.03000	    0.00000	 220.0	 3	    1.11000	    0.95000;
	91	 1	 0.0	 0.0	 0.0	 0.0	 1	    1.00000	    0.00000	 400.0	 3	    1.05000	    0.95000;
	92	 1	 0.0	 0.0	 0.0	 0.0	 1	    1.00000	    0.00000	 400.0	 3	    1.05000	    0.95000;
	93	 1	 0.0	 0.0	 0.0	 0.0	 1	    1.03000	    0.00000	 220.0	 3	    1.11000	    0.95000;
	94	 1	 0.0	 0.0	 0.0	 0.0	 1	    1.03000	    0.00000	 220.0	 3	    1.11000	    0.95000;
	95	 1	 0.0	 0.0	 0.0	 0.0	 1	    1.03000	    0.00000	 220.0	 3	    1.11000	    0.95000;
	96	 1	 0.0	 0.0	 0.0	 0.0	 1	    1.03000	    0.00000	 220.0	 3	    1.11000	    0.95000;
	97	 2	 18.68	 3.70	 0.0	 0.0	 1	    1.03000	    0.00000	 220.0	 3	    1.11000	    0.95000;
	98	 1	 25.92	 6.13	 0.0	 0.0	 1	    1.03000	    0.00000	 220.0	 3	    1.11000	    0.95000;
	99	 1	 0.0	 0.0	 0.0	 0.0	 1	    1.03000	    0.00000	 220.0	 3	    1.11000	    0.95000;
	100	 1	 0.0	 0.0	 0.0	 0.0	 1	    1.03000	    0.00000	 220.0	 3	    1.11000	    0.95000;
	101	 1	 0.0	 0.0	 0.0	 0.0	 1	    1.03000	    0.00000	 220.0	 3	    1.11000	    0.95000;
	102	 1	 0.0	 0.0	 0.0	 0.0	 1	    1.03000	    0.00000	 220.0	 3	    1.11000	    0.95000;
	103	 2	 20.94	 40.00	 0.0	 0.0	 1	    1.03000	    0.00000	 220.0	 3	    1.11000	    0.95000;
	104	 2	 0.0	 0.0	 0.0	 0.0	 1	    1.03000	    0.00000	 220.0	 3	    1.11000	    0.95000;
	105	 2	 10.47	 18.00	 0.0	 0.0	 1	    1.03000	    0.00000	 220.0	 3	    1.11000	    0.95000;
	106	 2	 0.0	 0.0	 0.0	 0.0	 1	    1.03000	    0.00000	 220.0	 3	    1.11000	    0.95000;
	107	 1	 0.00	 13.89	 0.0	 0.0	 1	    1.03000	    0.00000	 220.0	 3	    1.11000	    0.95000;
	108	 1	 110.37	 8.10	 0.0	 0.0	 1	    1.03000	    0.00000	 220.0	 3	    1.11000	    0.95000;
	109	 1	 0.0	 0.0	 0.0	 0.0	 1	    1.03000	    0.00000	 220.0	 3	    1.11000	    0.95000;
	110	 1	 0.0	 0.0	 0.0	 0.0	 1	    1.03000	    0.00000	 220.0	 3	    1.11000	    0.95000;
	111	 1	 0.0	 0.0	 0.0	 0.0	 1	    1.03000	    0.00000	 220.0	 3	    1.11000	    0.95000;
	112	 1	 0.0	 0.0	 0.0	 0.0	 1	    1.03000	    0.00000	 220.0	 3	    1.11000	    0.95000;
	113	 1	 0.0	 0.0	 0.0	 0.0	 1	    1.03000	    0.00000	 220.0	 3	    1.11000	    0.95000;
	114	 1	 0.0	 0.0	 0.0	 0.0	 1	    1.00000	    0.00000	 400.0	 3	    1.05000	    0.95000;
	115	 2	 0.0	 0.0	 0.0	 0.0	 1	    1.03000	    0.00000	 220.0	 3	    1.11000	    0.95000;
	116	 2	 11.97	 15.00	 0.0	 0.0	 1	    1.03000	    0.00000	 220.0	 3	    1.11000	    0.95000;
	117	 2	 8.23	 10.00	 0.0	 0.0	 1	    1.03000	    0.00000	 220.0	 3	    1.11000	    0.95000;
	118	 1	 0.0	 0.0	 0.0	 0.0	 1	    1.03000	    0.00000	 220.0	 3	    1.11000	    0.95000;
	119	 1	 0.0	 0.0	 0.0	 0.0	 1	    1.00000	    0.00000	 400.0	 3	    1.05000	    0.95000;
	120	 1	 0.0	 0.0	 0.0	 0.0	 1	    1.00000	    0.00000	 400.0	 3	    1.05000	    0.95000;
	121	 1	 0.0	 0.0	 0.0	 0.0	 1	    1.00000	    0.00000	 400.0	 3	    1.05000	    0.95000;
	122	 1	 0.0	 0.0	 0.0	 0.0	 1	    1.00000	    0.00000	 400.0	 3	    1.05000	    0.95000;
	123	 1	 0.0	 0.0	 0.0	 0.0	 1	    1.03000	    0.00000	 220.0	 3	    1.11000	    0.95000;
	124	 2	 16.46	 17.50	 0.0	 0.0	 1	    1.03000	    0.00000	 220.0	 3	    1.11000	    0.95000;
	125	 2	 61.86	 61.20	 0.0	 0.0	 1	    1.03000	    0.00000	 220.0	 3	    1.11000	    0.95000;
	126	 2	 20.94	 33.00	 0.0	 0.0	 1	    1.00000	    0.00000	 400.0	 3	    1.05000	    0.95000;
	127	 1	 0.0	 0.0	 0.0	 0.0	 1	    1.00000	    0.00000	 400.0	 3	    1.05000	    0.95000;
	128	 1	 0.0	 0.0	 0.0	 0.0	 1	    1.03000	    0.00000	 220.0	 3	    1.11000	    0.95000;
	129	 1	 0.0	 0.0	 0.0	 0.0	 1	    1.03000	    0.00000	 220.0	 3	    1.11000	    0.95000;
	130	 1	 0.0	 0.0	 0.0	 0.0	 1	    1.03000	    0.00000	 220.0	 3	    1.11000	    0.95000;
	131	 2	 2.24	 9.00	 0.0	 0.0	 1	    1.03000	    0.00000	 220.0	 3	    1.11000	    0.95000;
	132	 2	 0.0	 0.0	 0.0	 0.0	 1	    1.03000	    0.00000	 220.0	 3	    1.11000	    0.95000;
	133	 2	 16.78	 8.30	 0.0	 0.0	 1	    1.03000	    0.00000	 220.0	 4	    1.11000	    0.95000;
	134	 2	 15.46	 7.70	 0.0	 0.0	 1	    1.03000	    0.00000	 220.0	 4	    1.11000	    0.95000;
	135	 1	 0.0	 0.0	 0.0	 0.0	 1	    1.03000	    0.00000	 220.0	 4	    1.11000	    0.95000;
	136	 1	 0.0	 0.0	 0.0	 0.0	 1	    1.03000	    0.00000	 220.0	 4	    1.11000	    0.95000;
	137	 1	 0.0	 0.0	 0.0	 0.0	 1	    1.00000	    0.00000	 400.0	 4	    1.05000	    0.95000;
	138	 1	 0.0	 0.0	 0.0	 0.0	 1	    1.00000	    0.00000	 400.0	 4	    1.05000	    0.95000;
	139	 1	 0.0	 0.0	 0.0	 0.0	 1	    1.03000	    0.00000	 220.0	 4	    1.11000	    0.95000;
	140	 1	 0.0	 0.0	 0.0	 0.0	 1	    1.03000	    0.00000	 220.0	 4	    1.11000	    0.95000;
	141	 1	 0.0	 0.0	 0.0	 0.0	 1	    1.03000	    0.00000	 220.0	 4	    1.11000	    0.95000;
	142	 1	 0.0	 0.0	 0.0	 0.0	 1	    1.03000	    0.00000	 220.0	 4	    1.11000	    0.95000;
	143	 1	 0.0	 0.0	 0.0	 0.0	 1	    1.03000	    0.00000	 220.0	 4	    1.11000	    0.95000;
	144	 1	 0.0	 0.0	 0.0	 0.0	 1	    1.03000	    0.00000	 220.0	 4	    1.11000	    0.95000;
	145	 2	 0.0	 0.0	 0.0	 0.0	 1	    1.03000	    0.00000	 220.0	 4	    1.11000	    0.95000;
	146	 2	 0.0	 0.0	 0.0	 0.0	 1	    1.03000	    0.00000	 220.0	 4	    1.11000	    0.95000;
	147	 2	 38.23	 12.90	 0.0	 0.0	 1	    1.03000	    0.00000	 220.0	 4	    1.11000	    0.95000;
	148	 1	 0.0	 0.0	 0.0	 0.0	 1	    1.03000	    0.00000	 220.0	 4	    1.11000	    0.95000;
	149	 2	 16.46	 12.00	 0.0	 0.0	 1	    1.00000	    0.00000	 400.0	 4	    1.05000	    0.95000;
	150	 2	 17.83	 13.70	 0.0	 0.0	 1	    1.00000	    0.00000	 400.0	 4	    1.05000	    0.95000;
	151	 1	 0.0	 0.0	 0.0	 0.0	 1	    1.03000	    0.00000	 220.0	 4	    1.11000	    0.95000;
	152	 1	 0.0	 0.0	 0.0	 0.0	 1	    1.03000	    0.00000	 220.0	 4	    1.11000	    0.95000;
	153	 1	 0.0	 0.0	 0.0	 0.0	 1	    1.03000	    0.00000	 220.0	 4	    1.11000	    0.95000;
	154	 2	 29.13	 64.30	 0.0	 0.0	 1	    1.03000	    0.00000	 220.0	 4	    1.11000	    0.95000;
	155	 2	 23.94	 33.00	 0.0	 0.0	 1	    1.03000	    0.00000	 220.0	 4	    1.11000	    0.95000;
	156	 1	 0.0	 0.0	 0.0	 0.0	 1	    1.00000	    0.00000	 400.0	 4	    1.05000	    0.95000;
	157	 2	 14.96	 25.00	 0.0	 0.0	 1	    1.00000	    0.00000	 400.0	 4	    1.05000	    0.95000;
	158	 1	 0.0	 0.0	 0.0	 0.0	 1	    1.03000	    0.00000	 220.0	 4	    1.11000	    0.95000;
	159	 1	 0.0	 0.0	 0.0	 0.0	 1	    1.03000	    0.00000	 220.0	 4	    1.11000	    0.95000;
	160	 1	 0.0	 0.0	 0.0	 0.0	 1	    1.00000	    0.00000	 400.0	 4	    1.05000	    0.95000;
	161	 1	 0.0	 0.0	 0.0	 0.0	 1	    1.00000	    0.00000	 400.0	 4	    1.05000	    0.95000;
	162	 1	 0.0	 0.0	 0.0	 0.0	 1	    1.00000	    0.00000	 400.0	 4	    1.05000	    0.95000;
	163	 2	 8.29	 2.93	 0.0	 0.0	 1	    1.03000	    0.00000	 220.0	 4	    1.11000	    0.95000;
	164	 2	 27.31	 11.50	 0.0	 0.0	 1	    1.03000	    0.00000	 220.0	 4	    1.11000	    0.95000;
	165	 1	 0.0	 0.0	 0.0	 0.0	 1	    1.03000	    0.00000	 220.0	 4	    1.11000	    0.95000;
	166	 1	 0.0	 0.0	 0.0	 0.0	 1	    1.03000	    0.00000	 220.0	 4	    1.11000	    0.95000;
	167	 1	 0.0	 0.0	 0.0	 0.0	 1	    1.03000	    0.00000	 220.0	 4	    1.11000	    0.95000;
	168	 1	 0.0	 0.0	 0.0	 0.0	 1	    1.03000	    0.00000	 220.0	 4	    1.11000	    0.95000;
	169	 1	 0.0	 0.0	 0.0	 0.0	 1	    1.03000	    0.00000	 220.0	 4	    1.11000	    0.95000;
	170	 1	 0.0	 0.0	 0.0	 0.0	 1	    1.00000	    0.00000	 400.0	 4	    1.05000	    0.95000;
	171	 1	 0.0	 0.0	 0.0	 0.0	 1	    1.00000	    0.00000	 400.0	 4	    1.05000	    0.95000;
	172	 1	 0.0	 0.0	 0.0	 0.0	 1	    1.03000	    0.00000	 220.0	 4	    1.11000	    0.95000;
	173	 1	 0.0	 0.0	 0.0	 0.0	 1	    1.03000	    0.00000	 220.0	 4	    1.11000	    0.95000;
	174	 1	 0.0	 0.0	 0.0	 0.0	 1	    1.03000	    0.00000	 220.0	 4	    1.11000	    0.95000;
	175	 1	 0.0	 0.0	 0.0	 0.0	 1	    1.03000	    0.00000	 220.0	 4	    1.11000	    0.95000;
	176	 1	 0.0	 0.0	 0.0	 0.0	 1	    1.03000	    0.00000	 220.0	 4	    1.11000	    0.95000;
	177	 1	 0.0	 0.0	 0.0	 0.0	 1	    1.03000	    0.00000	 220.0	 4	    1.11000	    0.95000;
	178	 1	 0.0	 0.0	 0.0	 0.0	 1	    1.03000	    0.00000	 220.0	 4	    1.11000	    0.95000;
	179	 2	 4.68	 1.50	 0.0	 0.0	 1	    1.03000	    0.00000	 220.0	 4	    1.11000	    0.95000;
	180	 1	 0.0	 0.0	 0.0	 0.0	 1	    1.03000	    0.00000	 220.0	 4	    1.11000	    0.95000;
	181	 1	 0.0	 0.0	 0.0	 0.0	 1	    1.03000	    0.00000	 220.0	 5	    1.11000	    0.95000;
	182	 1	 0.0	 0.0	 0.0	 0.0	 1	    1.03000	    0.00000	 220.0	 5	    1.11000	    0.95000;
	183	 1	 0.0	 0.0	 0.0	 0.0	 1	    1.00000	    0.00000	 400.0	 5	    1.05000	    0.95000;
	184	 1	 0.0	 0.0	 0.0	 0.0	 1	    1.00000	    0.00000	 400.0	 5	    1.05000	    0.95000;
	185	 1	 0.0	 0.0	 0.0	 0.0	 1	    1.00000	    0.00000	 400.0	 5	    1.05000	    0.95000;
	186	 1	 0.0	 0.0	 0.0	 0.0	 1	    1.00000	    0.00000	 400.0	 5	    1.05000	    0.95000;
	187	 1	 0.0	 0.0	 0.0	 0.0	 1	    1.03000	    0.00000	 220.0	 5	    1.11000	    0.95000;
	188	 1	 0.0	 0.0	 0.0	 0.0	 1	    1.03000	    0.00000	 220.0	 5	    1.11000	    0.95000;
	189	 1	 0.0	 0.0	 0.0	 0.0	 1	    1.03000	    0.00000	 220.0	 5	    1.11000	    0.95000;
	190	 1	 0.0	 0.0	 0.0	 0.0	 1	    1.03000	    0.00000	 220.0	 5	    1.11000	    0.95000;
	191	 1	 0.0	 0.0	 0.0	 0.0	 1	    1.00000	    0.00000	 400.0	 5	    1.05000	    0.95000;
	192	 1	 0.0	 0.0	 0.0	 0.0	 1	    1.03000	    0.00000	 220.0	 5	    1.11000	    0.95000;
	193	 1	 0.0	 0.0	 0.0	 0.0	 1	    1.03000	    0.00000	 220.0	 5	    1.11000	    0.95000;
	194	 1	 0.0	 0.0	 0.0	 0.0	 1	    1.00000	    0.00000	 400.0	 5	    1.05000	    0.95000;
	195	 1	 0.0	 0.0	 0.0	 0.0	 1	    1.00000	    0.00000	 400.0	 5	    1.05000	    0.95000;
	196	 1	 0.0	 0.0	 0.0	 0.0	 1	    1.03000	    0.00000	 220.0	 5	    1.11000	    0.95000;
	197	 1	 0.0	 0.0	 0.0	 0.0	 1	    1.03000	    0.00000	 220.0	 5	    1.11000	    0.95000;
	198	 1	 0.0	 0.0	 0.0	 -117.0	 1	    1.00000	    0.00000	 400.0	 5	    1.05000	    0.95000;
	199	 1	 0.0	 0.0	 0.0	 0.0	 1	    1.00000	    0.00000	 400.0	 5	    1.05000	    0.95000;
	200	 1	 0.0	 0.0	 0.0	 0.0	 1	    1.03000	    0.00000	 220.0	 5	    1.11000	    0.95000;
...
];

%% generator data
%	bus	Pg	Qg	Qmax	Qmin	Vg	mBase	status	Pmax	Pmin
mpc.gen = [
	17	 0.0	 0.0	 120.0	 -26.0	 1.03	 241.9	 0	 51	 140.0; % NG
	17	 0.0	 0.0	 120.0	 -22.0	 1.03	 233.2	 0	 11	 140.0; % NG
	26	 238.0	 12.0	 190.0	 -166.0	 1.03	 415.9	 1	 331	 145.0; % NG
	27	 254.5	 4.0	 190.0	 -182.0	 1.03	 407.1	 1	 364	 145.0; % NG
	27	 327.5	 0.0	 255.0	 -255.0	 1.03	 407.1	 1	 510	 145.0; % NG
	27	 248.5	 7.0	 190.0	 -176.0	 1.03	 415.9	 1	 352	 145.0; % NG
	26	 354.0	 0.0	 282.0	 -282.0	 1.03	 415.9	 1	 563	 145.0; % NG
	28	 354.0	 0.0	 282.0	 -282.0	 1.0	 415.9	 1	 563	 145.0; % NG
	28	 0.0	 0.0	 524.0	 -524.0	 1.0	 415.9	 0	 1047	 145.0; % NUC
	28	 255.0	 3.5	 190.0	 -183.0	 1.0	 415.9	 1	 365	 145.0; % NG
	29	 0.0	 0.0	 190.0	 -60.0	 1.0	 415.9	 0	 119	 290.0; % NG
	29	 264.0	 0.0	 192.0	 -192.0	 1.0	 415.9	 1	 383	 145.0; % COW
	29	 305.0	 0.0	 233.0	 -233.0	 1.0	 415.9	 1	 465	 145.0; % NG
	42	 301.0	 0.0	 269.0	 -269.0	 1.03	 253.9	 1	 537	 65.0; % COW
	42	 0.0	 0.0	 130.0	 -34.0	 1.03	 242.7	 0	 47	 135.0; % NG
	42	 202.0	 0.0	 175.0	 -175.0	 1.03	 267.7	 1	 349	 55.0; % NG
	43	 148.0	 13.5	 145.0	 -118.0	 1.03	 267.7	 1	 236	 60.0; % NG
	43	 235.5	 0.0	 203.0	 -203.0	 1.03	 267.7	 1	 406	 65.0; % COW
	43	 0.0	 0.0	 130.0	 -34.0	 1.03	 242.7	 0	 13	 135.0; % NG
	44	 412.25	 7.0	 363.0	 -349.0	 1.0	 646.5	 1	 697	 127.5; % COW
	44	 0.0	 0.0	 348.0	 -103.0	 1.0	 659.3	 0	 206	 125.0; % NG
	54	 111.75	 12.0	 104.0	 -80.0	 1.03	 247.9	 1	 159	 64.5; % NG
	55	 108.25	 27.0	 130.0	 -76.0	 1.03	 259.9	 1	 152	 64.5; % NG
	54	 0.0	 0.0	 130.0	 -66.0	 1.03	 259.9	 0	 131	 64.5; % NG
	56	 190.25	 0.0	 158.0	 -158.0	 1.0	 259.9	 1	 316	 64.5; % NG
	57	 261.25	 0.0	 229.0	 -229.0	 1.0	 259.9	 1	 458	 64.5; % COW
	57	 0.0	 0.0	 104.0	 -64.0	 1.0	 247.9	 0	 127	 64.5; % NG
	57	 207.25	 0.0	 175.0	 -175.0	 1.0	 259.9	 1	 350	 64.5; % NG
	58	 78.025	 0.0	 66.0	 -66.0	 1.03	 66.5	 1	 132	 24.05; % NG
	77	 167.5	 0.0	 133.0	 -133.0	 1.03	 256.4	 1	 265	 70.0; % NG
	77	 183.5	 0.0	 149.0	 -149.0	 1.03	 256.4	 1	 297	 70.0; % NG
	78	 0.0	 0.0	 123.0	 -21.0	 1.03	 252.0	 0	 42	 140.0; % NG
	78	 241.0	 0.0	 206.0	 -206.0	 1.03	 256.4	 1	 412	 70.0; % NG
	78	 308.0	 0.0	 273.0	 -273.0	 1.03	 256.4	 1	 546	 70.0; % NG
	81	 214.5	 36.0	 232.0	 -160.0	 1.0	 445.2	 1	 319	 110.0; % NG
	81	 0.0	 0.0	 228.0	 -53.0	 1.0	 434.6	 0	 106	 220.0; % NG
	97	 101.25	 0.0	 99.0	 -99.0	 1.03	 12.0	 1	 198	 4.5; % NG
	97	 79.5	 0.0	 78.0	 -78.0	 1.03	 6.1	 1	 156	 3.0; % NG
	103	 172.0	 0.0	 139.0	 -139.0	 1.03	 256.4	 1	 277	 67.0; % NG
	104	 0.0	 0.0	 123.0	 -31.0	 1.03	 256.4	 0	 62	 134.0; % NG
	105	 323.75	 0.0	 304.0	 -304.0	 1.03	 144.2	 1	 608	 39.5; % COW
	106	 0.0	 0.0	 135.0	 -135.0	 1.03	 144.2	 0	 270	 39.5; % NG
	115	 0.0	 0.0	 90.0	 -20.0	 1.03	 150.0	 0	 39	 90.0; % COW
	116	 109.0	 0.0	 92.0	 -92.0	 1.03	 145.3	 1	 183	 35.0; % NG
	117	 150.5	 0.0	 131.0	 -131.0	 1.03	 117.0	 1	 261	 40.0; % COW
	124	 152.0	 11.5	 135.0	 -112.0	 1.03	 253.9	 1	 224	 80.0; % NG
	125	 135.5	 19.5	 140.0	 -101.0	 1.03	 265.0	 1	 201	 70.0; % NG
	125	 326.5	 0.0	 287.0	 -287.0	 1.03	 253.9	 1	 573	 80.0; % NG
	126	 191.0	 0.0	 156.0	 -156.0	 1.0	 265.0	 1	 312	 70.0; % NG
	126	 0.0	 0.0	 137.0	 -65.0	 1.0	 259.2	 0	 129	 80.0; % NG
	131	 118.0	 0.0	 118.0	 -118.0	 1.03	 131.2	 1	 236	 0.0; % COW
	131	 0.0	 0.0	 294.0	 -294.0	 1.03	 131.2	 0	 588	 0.0; % COW
	132	 0.0	 0.0	 40.0	 -38.0	 1.03	 131.2	 0	 49	 0.0; % NG
	132	 0.0	 0.0	 40.0	 -38.0	 1.03	 131.2	 0	 31	 0.0; % NG
	133	 0.0	 0.0	 90.0	 -67.0	 1.03	 150.0	 0	 133	 50.0; % NG
	133	 128.5	 0.0	 104.0	 -104.0	 1.03	 150.0	 1	 207	 50.0; % NG
	134	 144.5	 0.0	 120.0	 -120.0	 1.03	 150.0	 1	 239	 50.0; % NG
	145	 0.0	 0.0	 39.0	 -39.0	 1.03	 51.4	 0	 77	 15.0; % NG
	145	 0.0	 0.0	 177.0	 -177.0	 1.03	 51.4	 0	 354	 15.0; % NG
	146	 0.0	 0.0	 90.0	 -83.0	 1.03	 150.0	 0	 165	 45.0; % NG
	147	 0.0	 0.0	 149.0	 -73.0	 1.03	 267.4	 0	 146	 45.0; % NG
	147	 0.0	 0.0	 149.0	 -48.0	 1.03	 253.4	 0	 70	 67.5; % NG
	147	 0.0	 0.0	 149.0	 -66.0	 1.03	 253.4	 0	 131	 67.5; % NG
	147	 115.5	 4.3	 149.0	 -140.4	 1.03	 267.4	 1	 186	 45.0; % NG
	149	 163.5	 0.0	 236.4	 -236.4	 1.0	 253.8	 1	 282	 45.0; % NG
	150	 166.0	 2.5	 149.0	 -144.0	 1.0	 267.4	 1	 287	 45.0; % NG
	150	 0.0	 0.0	 123.0	 -23.0	 1.0	 253.8	 0	 26	 90.0; % NG
	154	 156.0	 8.0	 149.0	 -133.0	 1.03	 278.3	 1	 265	 47.0; % NG
	154	 0.0	 0.0	 149.0	 -53.0	 1.03	 278.3	 0	 0	 94.0; % NG
	154	 137.0	 4.5	 120.0	 -111.0	 1.03	 287.3	 1	 222	 52.0; % NG
	154	 0.0	 0.0	 145.0	 -145.0	 1.03	 292.5	 0	 290	 52.0; % COW
	155	 0.0	 0.0	 208.0	 -208.0	 1.03	 287.3	 0	 415	 52.0; % NG
	155	 269.0	 0.0	 237.0	 -237.0	 1.03	 236.0	 1	 473	 65.0; % NG
	155	 148.0	 0.0	 118.0	 -118.0	 1.03	 233.1	 1	 236	 60.0; % COW
	155	 0.0	 0.0	 109.0	 -63.0	 1.03	 233.1	 0	 125	 60.0; % NG
	157	 259.0	 0.0	 229.0	 -229.0	 1.0	 233.1	 1	 458	 60.0; % COW
	163	 0.0	 0.0	 104.0	 -23.0	 1.03	 225.4	 0	 40	 150.0; % NG
	163	 193.5	 0.0	 156.0	 -156.0	 1.03	 225.4	 1	 312	 75.0; % NG
	164	 171.0	 0.0	 134.0	 -134.0	 1.03	 225.4	 1	 267	 75.0; % NG
	164	 197.5	 0.0	 160.0	 -160.0	 1.03	 225.4	 1	 320	 75.0; % NG
	179	 186.0	 0.0	 144.0	 -144.0	 1.03	 219.5	 1	 287	 85.0; % NG
	204	 58.0	 25.0	 110.0	 -60.0	 1.0	 210.1	 1	 116	 0.0; % NG
	204	 101.5	 4.0	 110.0	 -102.0	 1.0	 210.1	 1	 203	 0.0; % NG
	204	 50.5	 25.0	 110.0	 -60.0	 1.0	 210.1	 1	 101	 0.0; % NG
	205	 106.5	 1.5	 110.0	 -107.0	 1.0	 210.1	 1	 213	 0.0; % NG
	214	 58.75	 0.0	 50.0	 -50.0	 1.035	 58.5	 1	 100	 17.5; % NG
	214	 0.0	 0.0	 20.0	 0.0	 1.035	 53.9	 0	 0	 0.0; % SYNC
	214	 0.0	 0.0	 20.0	 0.0	 1.035	 53.9	 0	 0	 0.0; % SYNC
	214	 40.0	 0.0	 38.0	 -38.0	 1.035	 30.5	 1	 75	 5.0; % PEL
	220	 12.3875	 0.0	 12.0	 -12.0	 1.035	 2.3	 1	 24	 0.775; % PEL
	221	 27.3875	 0.0	 27.0	 -27.0	 1.035	 2.3	 1	 54	 0.775; % PEL
	239	 54.75	 0.0	 53.0	 -53.0	 1.035	 9.8	 1	 106	 3.5; % NG
	246	 291.5	 0.0	 219.0	 -219.0	 1.035	 415.9	 1	 438	 145.0; % NG
	309	 0.0	 0.0	 7.0	 0.0	 1.035	 27.9	 0	 0	 0.0; % SYNC
	309	 0.0	 0.0	 7.0	 0.0	 1.035	 27.9	 0	 0	 0.0; % SYNC
	309	 43.25	 0.0	 41.0	 -41.0	 1.035	 30.8	 1	 81	 5.5; % NG
	309	 0.0	 0.0	 7.0	 0.0	 1.035	 27.9	 0	 0	 0.0; % SYNC
	309	 0.0	 0.0	 6.0	 0.0	 1.035	 27.7	 0	 0	 0.0; % SYNC
	309	 0.0	 0.0	 7.0	 0.0	 1.035	 27.9	 0	 0	 0.0; % SYNC
	309	 0.0	 0.0	 7.0	 0.0	 1.035	 27.9	 0	 0	 0.0; % SYNC
	310	 56.25	 0.0	 53.0	 -53.0	 1.035	 36.7	 1	 105	 7.5; % NG
	310	 0.0	 0.0	 15.0	 0.0	 1.035	 57.0	 0	 0	 0.0; % SYNC
	311	 110.75	 0.0	 107.0	 -107.0	 1.035	 36.7	 1	 214	 7.5; % NG
	311	 0.0	 0.0	 15.0	 0.0	 1.035	 57.0	 0	 0	 0.0; % SYNC
	313	 181.0	 0.0	 174.0	 -174.0	 1.035	 53.9	 1	 347	 15.0; % NG
	313	 0.0	 0.0	 20.0	 0.0	 1.035	 53.9	 0	 0	 0.0; % SYNC
	314	 0.0	 0.0	 40.0	 0.0	 1.035	 107.7	 0	 0	 0.0; % SYNC
	322	 79.125	 0.0	 79.0	 -79.0	 1.035	 4.1	 1	 157	 1.25; % PEL
	365	 93.8125	 0.0	 83.0	 -83.0	 1.035	 47.8	 1	 166	 21.625; % NG
	366	 78.3125	 0.0	 68.0	 -68.0	 1.035	 47.8	 1	 135	 21.625; % NG
	367	 228.3125	 0.0	 218.0	 -218.0	 1.035	 47.8	 1	 435	 21.625; % NG
	368	 142.8125	 0.0	 132.0	 -132.0	 1.035	 47.8	 1	 264	 21.625; % NG
	385	 126.0	 23.5	 138.0	 -91.0	 1.035	 251.3	 1	 182	 70.0; % NG
	385	 0.0	 0.0	 20.0	 -20.0	 1.035	 26.9	 0	 39	 6.0; % PEL
	386	 219.5	 0.0	 217.0	 -217.0	 1.035	 19.7	 1	 434	 5.0; % NG
	443	 49.375	 0.0	 49.0	 -49.0	 1.035	 3.6	 1	 98	 0.75; % PEL
	452	 16.8025	 0.0	 16.0	 -16.0	 1.035	 6.1	 1	 31	 2.605; % NG
	452	 0.0	 0.0	 2.0	 0.0	 1.035	 6.1	 0	 0	 0.0; % SYNC
	485	 28.85	 0.0	 29.0	 -29.0	 1.035	 1.7	 1	 57	 0.7; % PEL
	536	 200.0	 0.0	 190.0	 -190.0	 1.035	 53.9	 1	 380	 20.0; % NG
	536	 0.0	 0.0	 14.0	 0.0	 1.035	 34.9	 0	 0	 0.0; % SYNC
	536	 0.0	 0.0	 14.0	 0.0	 1.035	 34.0	 0	 0	 0.0; % SYNC
	536	 0.0	 0.0	 14.0	 0.0	 1.035	 105.9	 0	 0	 0.0; % SYNC
	536	 0.0	 0.0	 14.0	 0.0	 1.035	 105.9	 0	 0	 0.0; % SYNC
	537	 68.75	 0.0	 63.0	 -63.0	 1.035	 36.5	 1	 125	 12.5; % PEL
	537	 89.75	 0.0	 84.0	 -84.0	 1.035	 35.6	 1	 167	 12.5; % NG
	537	 0.0	 0.0	 17.5	 0.0	 1.035	 126.2	 0	 0	 0.0; % SYNC
	537	 0.0	 0.0	 17.5	 0.0	 1.035	 106.4	 0	 0	 0.0; % SYNC
	551	 57.35	 0.0	 57.0	 -57.0	 1.035	 1.7	 1	 114	 0.7; % PEL
	559	 113.5	 0.0	 106.0	 -106.0	 1.035	 34.4	 1	 212	 15.0; % PEL
	559	 0.0	 0.0	 5.0	 0.0	 1.035	 28.4	 0	 0	 0.0; % SYNC
	559	 0.0	 0.0	 5.0	 0.0	 1.035	 26.5	 0	 0	 0.0; % SYNC
	559	 0.0	 0.0	 5.0	 0.0	 1.035	 30.4	 0	 0	 0.0; % SYNC
	559	 0.0	 0.0	 5.0	 0.0	 1.035	 34.4	 0	 0	 0.0; % SYNC
	560	 128.0	 0.0	 121.0	 -121.0	 1.035	 34.4	 1	 241	 15.0; % PEL
	560	 0.0	 0.0	 5.0	 0.0	 1.035	 34.4	 0	 0	 0.0; % SYNC
	560	 0.0	 0.0	 5.0	 0.0	 1.035	 26.5	 0	 0	 0.0; % SYNC
	560	 0.0	 0.0	 5.0	 0.0	 1.035	 34.4	 0	 0	 0.0; % SYNC
	573	 28.25	 0.0	 28.0	 -28.0	 1.035	 8.9	 1	 56	 0.5; % PEL
	626	 74.5	 0.0	 55.0	 -55.0	 1.035	 97.7	 1	 110	 39.0; % COW
	626	 76.5	 0.0	 69.0	 -69.0	 1.035	 46.8	 1	 138	 15.0; % COW
	664	 195.0	 0.0	 163.0	 -163.0	 1.035	 267.7	 1	 325	 65.0; % NG
	665	 0.0	 0.0	 145.0	 -34.0	 1.035	 267.7	 0	 63	 130.0; % NG
	685	 120.0	 0.0	 83.0	 -83.0	 1.035	 182.5	 1	 165	 75.0; % NG
	685	 82.0	 0.0	 70.0	 -70.0	 1.035	 77.5	 1	 139	 25.0; % NG
	691	 19.6075	 0.0	 19.0	 -19.0	 1.035	 3.1	 1	 38	 1.215; % PEL
	716	 24.3675	 0.0	 24.0	 -24.0	 1.035	 10.1	 1	 48	 0.735; % PEL
	740	 161.75	 0.0	 130.0	 -130.0	 1.035	 259.9	 1	 259	 64.5; % NG
	763	 188.5	 0.0	 167.0	 -167.0	 1.035	 105.4	 1	 334	 43.0; % COW
	792	 46.75	 0.0	 47.0	 -47.0	 1.035	 8.4	 1	 93	 0.5; % PEL
	796	 55.75	 0.0	 55.0	 -55.0	 1.035	 71.9	 1	 109	 2.5; % PEL
	796	 0.0	 0.0	 23.0	 -2.0	 1.035	 71.9	 0	 3	 2.5; % PEL
	796	 0.0	 0.0	 27.0	 -27.0	 1.035	 32.9	 0	 54	 8.0; % PEL
	796	 0.0	 0.0	 148.0	 -148.0	 1.035	 32.6	 0	 296	 8.0; % COW
	807	 0.0	 0.0	 26.0	 -26.0	 1.035	 125.4	 0	 52	 42.0; % NG
	808	 105.5	 0.0	 83.0	 -83.0	 1.035	 125.4	 1	 165	 46.0; % NG
	845	 20.25	 0.0	 17.0	 -17.0	 1.035	 33.0	 1	 33	 7.5; % PEL
	845	 40.25	 0.0	 37.0	 -37.0	 1.035	 33.0	 1	 73	 7.5; % COW
	845	 0.0	 0.0	 0.0	 0.0	 1.035	 19.0	 0	 0	 0.0; % SYNC
	845	 0.0	 0.0	 0.0	 0.0	 1.035	 19.0	 0	 0	 0.0; % SYNC
	877	 63.25	 0.0	 55.0	 -55.0	 1.035	 87.7	 1	 109	 17.5; % NG
	900	 0.0	 0.0	 45.0	 -10.0	 1.035	 65.8	 0	 0	 0.0; % SYNC
	900	 134.5	 0.0	 122.0	 -122.0	 1.035	 71.1	 1	 244	 25.0; % NG
	900	 0.0	 0.0	 45.0	 -10.0	 1.035	 71.1	 0	 0	 0.0; % SYNC
	975	 0.0	 0.0	 110.0	 -40.0	 1.035	 162.2	 0	 0	 0.0; % SYNC
	976	 97.5	 18.5	 110.0	 -73.0	 1.035	 162.2	 1	 145	 50.0; % PEL
	980	 0.0	 0.0	 0.0	 0.0	 1.035	 16.8	 0	 0	 0.0; % SYNC
	1001	 469.5	 0.0	 415.0	 -415.0	 1.035	 454.5	 1	 829	 110.0; % COW
	1002	 187.5	 47.0	 227.0	 -133.0	 1.035	 434.1	 1	 265	 110.0; % NG
	1006	 68.5	 0.0	 67.0	 -67.0	 1.035	 7.1	 1	 134	 3.0; % COW
	1005	 51.0	 0.0	 50.0	 -50.0	 1.035	 4.0	 1	 100	 2.0; % NG
	1006	 26.5	 0.0	 26.0	 -26.0	 1.035	 5.0	 1	 51	 2.0; % NG
	1006	 0.0	 0.0	 0.0	 0.0	 1.035	 6.0	 0	 0	 0.0; % SYNC
	1007	 0.0	 0.0	 110.0	 -40.0	 1.035	 174.1	 0	 0	 0.0; % SYNC
	1013	 113.75	 0.0	 110.0	 -110.0	 1.035	 20.6	 1	 220	 7.5; % NG
	1013	 0.0	 0.0	 0.0	 0.0	 1.035	 12.8	 0	 0	 0.0; % SYNC
	1013	 0.0	 0.0	 0.0	 0.0	 1.035	 12.5	 0	 0	 0.0; % SYNC
	1015	 0.0	 0.0	 0.0	 0.0	 1.035	 20.0	 0	 0	 0.0; % SYNC
	1015	 0.0	 0.0	 0.0	 0.0	 1.035	 19.0	 0	 0	 0.0; % SYNC
	1024	 222.0	 0.0	 219.0	 -219.0	 1.035	 30.0	 1	 438	 6.0; % COW
	1025	 0.0	 0.0	 18.0	 -0.0	 1.035	 30.0	 0	 0	 0.0; % SYNC
	1026	 0.0	 0.0	 14.0	 -0.0	 1.035	 32.2	 0	 0	 0.0; % SYNC
	1113	 0.0	 0.0	 37.5	 -0.0	 1.035	 62.5	 0	 0	 0.0; % SYNC
	1114	 0.0	 0.0	 37.5	 -0.0	 1.035	 62.5	 0	 0	 0.0; % SYNC
	1113	 123.0	 0.0	 111.0	 -111.0	 1.035	 62.5	 1	 221	 25.0; % NG
	1115	 0.0	 0.0	 37.5	 -0.0	 1.035	 62.5	 0	 0	 0.0; % SYNC
	1152	 47.75	 0.0	 44.0	 -44.0	 1.035	 30.5	 1	 87	 8.5; % NG
	1152	 0.0	 0.0	 0.0	 0.0	 1.035	 6.0	 0	 0	 0.0; % SYNC
	1153	 33.25	 0.0	 29.0	 -29.0	 1.035	 30.5	 1	 58	 8.5; % PEL
	1153	 0.0	 0.0	 0.0	 0.0	 1.035	 25.0	 0	 0	 0.0; % SYNC
	1154	 129.5	 0.0	 126.0	 -126.0	 1.035	 30.5	 1	 251	 8.0; % NG
	1154	 0.0	 0.0	 0.0	 0.0	 1.035	 6.0	 0	 0	 0.0; % SYNC
	1179	 108.5	 0.0	 91.0	 -91.0	 1.035	 87.5	 1	 182	 35.0; % PEL
	1180	 0.0	 0.0	 52.5	 0.0	 1.035	 87.5	 0	 0	 0.0; % SYNC
	1180	 0.0	 0.0	 42.0	 -0.0	 1.035	 65.3	 0	 0	 0.0; % SYNC
	1188	 101.5	 0.0	 89.0	 -89.0	 1.035	 50.0	 1	 178	 25.0; % NG
	1246	 146.5	 0.0	 144.0	 -144.0	 1.035	 16.7	 1	 288	 5.0; % NG
	1246	 0.0	 0.0	 0.0	 0.0	 1.035	 24.0	 0	 0	 0.0; % SYNC
	1247	 0.0	 0.0	 0.0	 0.0	 1.035	 14.6	 0	 0	 0.0; % SYNC
	1247	 0.0	 0.0	 0.0	 0.0	 1.035	 14.6	 0	 0	 0.0; % SYNC
...
];

%% generator cost data
%	2	startup	shutdown	n	c(n-1)	...	c0
mpc.gencost = [
	2	 0.0	 0.0	 3	   0.000000	 112.780000	   0.000000; % NG
	2	 0.0	 0.0	 3	   0.000000	 112.780000	   0.000000; % NG
	2	 0.0	 0.0	 3	   0.000000	  76.100000	   0.000000; % NG
	2	 0.0	 0.0	 3	   0.000000	  76.100000	   0.000000; % NG
	2	 0.0	 0.0	 3	   0.000000	  76.100000	   0.000000; % NG
	2	 0.0	 0.0	 3	   0.000000	  76.100000	   0.000000; % NG
	2	 0.0	 0.0	 3	   0.000000	  76.100000	   0.000000; % NG
	2	 0.0	 0.0	 3	   0.000000	  76.100000	   0.000000; % NG
	2	 0.0	 0.0	 3	   0.000000	  76.100000	   0.000000; % NUC
	2	 0.0	 0.0	 3	   0.000000	  76.100000	   0.000000; % NG
	2	 0.0	 0.0	 3	   0.000000	  76.100000	   0.000000; % NG
	2	 0.0	 0.0	 3	   0.000000	  76.100000	   0.000000; % COW
	2	 0.0	 0.0	 3	   0.000000	  76.100000	   0.000000; % NG
	2	 0.0	 0.0	 3	   0.000000	 102.050000	   0.000000; % COW
	2	 0.0	 0.0	 3	   0.000000	 102.050000	   0.000000; % NG
	2	 0.0	 0.0	 3	   0.000000	 102.050000	   0.000000; % NG
	2	 0.0	 0.0	 3	   0.000000	 102.050000	   0.000000; % NG
	2	 0.0	 0.0	 3	   0.000000	 102.050000	   0.000000; % COW
	2	 0.0	 0.0	 3	   0.000000	 102.050000	   0.000000; % NG
	2	 0.0	 0.0	 3	   0.000000	 102.050000	   0.000000; % COW
	2	 0.0	 0.0	 3	   0.000000	 102.050000	   0.000000; % NG
	2	 0.0	 0.0	 3	   0.000000	 105.350000	   0.000000; % NG
	2	 0.0	 0.0	 3	   0.000000	 105.350000	   0.000000; % NG
	2	 0.0	 0.0	 3	   0.000000	 105.350000	   0.000000; % NG
	2	 0.0	 0.0	 3	   0.000000	 105.350000	   0.000000; % NG
	2	 0.0	 0.0	 3	   0.000000	 105.350000	   0.000000; % COW
	2	 0.0	 0.0	 3	   0.000000	 105.350000	   0.000000; % NG
	2	 0.0	 0.0	 3	   0.000000	 105.350000	   0.000000; % NG
	2	 0.0	 0.0	 3	   0.000000	   0.000000	   0.000000; % NG
	2	 0.0	 0.0	 3	   0.000000	  95.310000	   0.000000; % NG
	2	 0.0	 0.0	 3	   0.000000	  95.310000	   0.000000; % NG
	2	 0.0	 0.0	 3	   0.000000	  95.310000	   0.000000; % NG
	2	 0.0	 0.0	 3	   0.000000	  95.310000	   0.000000; % NG
	2	 0.0	 0.0	 3	   0.000000	  95.310000	   0.000000; % NG
	2	 0.0	 0.0	 3	   0.000000	  90.030000	   0.000000; % NG
	2	 0.0	 0.0	 3	   0.000000	  90.030000	   0.000000; % NG
	2	 0.0	 0.0	 3	   0.000000	   0.000000	   0.000000; % NG
	2	 0.0	 0.0	 3	   0.000000	   0.000000	   0.000000; % NG
	2	 0.0	 0.0	 3	   0.000000	  92.780000	   0.000000; % NG
	2	 0.0	 0.0	 3	   0.000000	  92.780000	   0.000000; % NG
	2	 0.0	 0.0	 3	   0.000000	  94.090000	   0.000000; % COW
	2	 0.0	 0.0	 3	   0.000000	  94.090000	   0.000000; % NG
	2	 0.0	 0.0	 3	   0.000000	  97.120000	   0.000000; % COW
	2	 0.0	 0.0	 3	   0.000000	  97.120000	   0.000000; % NG
	2	 0.0	 0.0	 3	   0.000000	  99.520000	   0.000000; % COW
	2	 0.0	 0.0	 3	   0.000000	  91.160000	   0.000000; % NG
	2	 0.0	 0.0	 3	   0.000000	  91.160000	   0.000000; % NG
	2	 0.0	 0.0	 3	   0.000000	  91.160000	   0.000000; % NG
	2	 0.0	 0.0	 3	   0.000000	  91.160000	   0.000000; % NG
	2	 0.0	 0.0	 3	   0.000000	  91.160000	   0.000000; % NG
	2	 0.0	 0.0	 3	   0.000000	   0.010000	   0.000000; % COW
	2	 0.0	 0.0	 3	   0.000000	   0.010000	   0.000000; % COW
	2	 0.0	 0.0	 3	   0.000000	   0.010000	   0.000000; % NG
	2	 0.0	 0.0	 3	   0.000000	   0.010000	   0.000000; % NG
	2	 0.0	 0.0	 3	   0.000000	  92.430000	   0.000000; % NG
	2	 0.0	 0.0	 3	   0.000000	  92.430000	   0.000000; % NG
	2	 0.0	 0.0	 3	   0.000000	  92.430000	   0.000000; % NG
	2	 0.0	 0.0	 3	   0.000000	  96.420000	   0.000000; % NG
	2	 0.0	 0.0	 3	   0.000000	  96.420000	   0.000000; % NG
	2	 0.0	 0.0	 3	   0.000000	  96.420000	   0.000000; % NG
	2	 0.0	 0.0	 3	   0.000000	 116.010000	   0.000000; % NG
	2	 0.0	 0.0	 3	   0.000000	 116.010000	   0.000000; % NG
	2	 0.0	 0.0	 3	   0.000000	 116.010000	   0.000000; % NG
	2	 0.0	 0.0	 3	   0.000000	 116.010000	   0.000000; % NG
	2	 0.0	 0.0	 3	   0.000000	 116.010000	   0.000000; % NG
	2	 0.0	 0.0	 3	   0.000000	 116.010000	   0.000000; % NG
	2	 0.0	 0.0	 3	   0.000000	 116.010000	   0.000000; % NG
	2	 0.0	 0.0	 3	   0.000000	  98.840000	   0.000000; % NG
	2	 0.0	 0.0	 3	   0.000000	  98.840000	   0.000000; % NG
	2	 0.0	 0.0	 3	   0.000000	  98.840000	   0.000000; % NG
	2	 0.0	 0.0	 3	   0.000000	  98.840000	   0.000000; % COW
	2	 0.0	 0.0	 3	   0.000000	  98.840000	   0.000000; % NG
	2	 0.0	 0.0	 3	   0.000000	  98.840000	   0.000000; % NG
	2	 0.0	 0.0	 3	   0.000000	  98.840000	   0.000000; % COW
	2	 0.0	 0.0	 3	   0.000000	  98.840000	   0.000000; % NG
	2	 0.0	 0.0	 3	   0.000000	  98.840000	   0.000000; % COW
	2	 0.0	 0.0	 3	   0.000000	  89.220000	   0.000000; % NG
	2	 0.0	 0.0	 3	   0.000000	  89.220000	   0.000000; % NG
	2	 0.0	 0.0	 3	   0.000000	  89.220000	   0.000000; % NG
	2	 0.0	 0.0	 3	   0.000000	  89.220000	   0.000000; % NG
	2	 0.0	 0.0	 3	   0.000000	   0.000000	   0.000000; % NG
	2	 0.0	 0.0	 3	   0.000000	   0.010000	   0.000000; % NG
	2	 0.0	 0.0	 3	   0.000000	   0.010000	   0.000000; % NG
	2	 0.0	 0.0	 3	   0.000000	   0.010000	   0.000000; % NG
	2	 0.0	 0.0	 3	   0.000000	   0.010000	   0.000000; % NG
	2	 0.0	 0.0	 3	   0.000000	   0.000000	   0.000000; % NG
	2	 0.0	 0.0	 3	   0.000000	   0.000000	   0.000000; % SYNC
	2	 0.0	 0.0	 3	   0.000000	   0.000000	   0.000000; % SYNC
	2	 0.0	 0.0	 3	   0.000000	   0.000000	   0.000000; % PEL
	2	 0.0	 0.0	 3	   0.000000	   0.000000	   0.000000; % PEL
	2	 0.0	 0.0	 3	   0.000000	   0.000000	   0.000000; % PEL
	2	 0.0	 0.0	 3	   0.000000	   0.000000	   0.000000; % NG
	2	 0.0	 0.0	 3	   0.000000	  76.100000	   0.000000; % NG
	2	 0.0	 0.0	 3	   0.000000	   0.000000	   0.000000; % SYNC
	2	 0.0	 0.0	 3	   0.000000	   0.000000	   0.000000; % SYNC
	2	 0.0	 0.0	 3	   0.000000	   0.000000	   0.000000; % NG
	2	 0.0	 0.0	 3	   0.000000	   0.000000	   0.000000; % SYNC
	2	 0.0	 0.0	 3	   0.000000	   0.000000	   0.000000; % SYNC
	2	 0.0	 0.0	 3	   0.000000	   0.000000	   0.000000; % SYNC
	2	 0.0	 0.0	 3	   0.000000	   0.000000	   0.000000; % SYNC
	2	 0.0	 0.0	 3	   0.000000	   0.000000	   0.000000; % NG
	2	 0.0	 0.0	 3	   0.000000	   0.000000	   0.000000; % SYNC
	2	 0.0	 0.0	 3	   0.000000	   0.000000	   0.000000; % NG
	2	 0.0	 0.0	 3	   0.000000	   0.000000	   0.000000; % SYNC
	2	 0.0	 0.0	 3	   0.000000	   0.000000	   0.000000; % NG
	2	 0.0	 0.0	 3	   0.000000	   0.000000	   0.000000; % SYNC
	2	 0.0	 0.0	 3	   0.000000	   0.000000	   0.000000; % SYNC
	2	 0.0	 0.0	 3	   0.000000	   0.000000	   0.000000; % PEL
	2	 0.0	 0.0	 3	   0.000000	   0.000000	   0.000000; % NG
	2	 0.0	 0.0	 3	   0.000000	   0.000000	   0.000000; % NG
	2	 0.0	 0.0	 3	   0.000000	   0.000000	   0.000000; % NG
	2	 0.0	 0.0	 3	   0.000000	   0.000000	   0.000000; % NG
	2	 0.0	 0.0	 3	   0.000000	 112.780000	   0.000000; % NG
	2	 0.0	 0.0	 3	   0.000000	 112.780000	   0.000000; % PEL
	2	 0.0	 0.0	 3	   0.000000	 112.780000	   0.000000; % NG
	2	 0.0	 0.0	 3	   0.000000	   0.000000	   0.000000; % PEL
	2	 0.0	 0.0	 3	   0.000000	   0.000000	   0.000000; % NG
	2	 0.0	 0.0	 3	   0.000000	   0.000000	   0.000000; % SYNC
	2	 0.0	 0.0	 3	   0.000000	   0.000000	   0.000000; % PEL
	2	 0.0	 0.0	 3	   0.000000	   0.000000	   0.000000; % NG
	2	 0.0	 0.0	 3	   0.000000	   0.000000	   0.000000; % SYNC
	2	 0.0	 0.0	 3	   0.000000	   0.000000	   0.000000; % SYNC
	2	 0.0	 0.0	 3	   0.000000	   0.000000	   0.000000; % SYNC
	2	 0.0	 0.0	 3	   0.000000	   0.000000	   0.000000; % SYNC
	2	 0.0	 0.0	 3	   0.000000	   0.000000	   0.000000; % PEL
	2	 0.0	 0.0	 3	   0.000000	   0.000000	   0.000000; % NG
	2	 0.0	 0.0	 3	   0.000000	   0.000000	   0.000000; % SYNC
	2	 0.0	 0.0	 3	   0.000000	   0.000000	   0.000000; % SYNC
	2	 0.0	 0.0	 3	   0.000000	   0.000000	   0.000000; % PEL
	2	 0.0	 0.0	 3	   0.000000	   0.000000	   0.000000; % PEL
	2	 0.0	 0.0	 3	   0.000000	   0.000000	   0.000000; % SYNC
	2	 0.0	 0.0	 3	   0.000000	   0.000000	   0.000000; % SYNC
	2	 0.0	 0.0	 3	   0.000000	   0.000000	   0.000000; % SYNC
	2	 0.0	 0.0	 3	   0.000000	   0.000000	   0.000000; % SYNC
	2	 0.0	 0.0	 3	   0.000000	   0.000000	   0.000000; % PEL
	2	 0.0	 0.0	 3	   0.000000	   0.000000	   0.000000; % SYNC
	2	 0.0	 0.0	 3	   0.000000	   0.000000	   0.000000; % SYNC
	2	 0.0	 0.0	 3	   0.000000	   0.000000	   0.000000; % SYNC
	2	 0.0	 0.0	 3	   0.000000	   0.000000	   0.000000; % PEL
	2	 0.0	 0.0	 3	   0.000000	   0.000000	   0.000000; % COW
	2	 0.0	 0.0	 3	   0.000000	   0.000000	   0.000000; % COW
	2	 0.0	 0.0	 3	   0.000000	 102.050000	   0.000000; % NG
	2	 0.0	 0.0	 3	   0.000000	 102.050000	   0.000000; % NG
	2	 0.0	 0.0	 3	   0.000000	   0.000000	   0.000000; % NG
	2	 0.0	 0.0	 3	   0.000000	   0.000000	   0.000000; % NG
	2	 0.0	 0.0	 3	   0.000000	   0.000000	   0.000000; % PEL
	2	 0.0	 0.0	 3	   0.000000	   0.000000	   0.000000; % PEL
	2	 0.0	 0.0	 3	   0.000000	 105.350000	   0.000000; % NG
	2	 0.0	 0.0	 3	   0.000000	   0.000000	   0.000000; % COW
	2	 0.0	 0.0	 3	   0.000000	   0.000000	   0.000000; % PEL
	2	 0.0	 0.0	 3	   0.000000	   0.010000	   0.000000; % PEL
	2	 0.0	 0.0	 3	   0.000000	   0.010000	   0.000000; % PEL
	2	 0.0	 0.0	 3	   0.000000	   0.010000	   0.000000; % PEL
	2	 0.0	 0.0	 3	   0.000000	   0.010000	   0.000000; % COW
	2	 0.0	 0.0	 3	   0.000000	 111.630000	   0.000000; % NG
	2	 0.0	 0.0	 3	   0.000000	 111.630000	   0.000000; % NG
	2	 0.0	 0.0	 3	   0.000000	   0.000000	   0.000000; % PEL
	2	 0.0	 0.0	 3	   0.000000	   0.000000	   0.000000; % COW
	2	 0.0	 0.0	 3	   0.000000	   0.000000	   0.000000; % SYNC
	2	 0.0	 0.0	 3	   0.000000	   0.000000	   0.000000; % SYNC
	2	 0.0	 0.0	 3	   0.000000	   0.000000	   0.000000; % NG
	2	 0.0	 0.0	 3	   0.000000	   0.000000	   0.000000; % SYNC
	2	 0.0	 0.0	 3	   0.000000	   0.000000	   0.000000; % NG
	2	 0.0	 0.0	 3	   0.000000	   0.000000	   0.000000; % SYNC
	2	 0.0	 0.0	 3	   0.000000	   0.000000	   0.000000; % SYNC
	2	 0.0	 0.0	 3	   0.000000	   0.000000	   0.000000; % PEL
	2	 0.0	 0.0	 3	   0.000000	   0.000000	   0.000000; % SYNC
	2	 0.0	 0.0	 3	   0.000000	  90.030000	   0.000000; % COW
	2	 0.0	 0.0	 3	   0.000000	  90.030000	   0.000000; % NG
	2	 0.0	 0.0	 3	   0.000000	   0.000000	   0.000000; % COW
	2	 0.0	 0.0	 3	   0.000000	   0.000000	   0.000000; % NG
	2	 0.0	 0.0	 3	   0.000000	   0.000000	   0.000000; % NG
	2	 0.0	 0.0	 3	   0.000000	   0.000000	   0.000000; % SYNC
	2	 0.0	 0.0	 3	   0.000000	   0.000000	   0.000000; % SYNC
	2	 0.0	 0.0	 3	   0.000000	   0.000000	   0.000000; % NG
	2	 0.0	 0.0	 3	   0.000000	   0.000000	   0.000000; % SYNC
	2	 0.0	 0.0	 3	   0.000000	   0.000000	   0.000000; % SYNC
	2	 0.0	 0.0	 3	   0.000000	   0.000000	   0.000000; % SYNC
	2	 0.0	 0.0	 3	   0.000000	   0.000000	   0.000000; % SYNC
	2	 0.0	 0.0	 3	   0.000000	   0.000000	   0.000000; % COW
	2	 0.0	 0.0	 3	   0.000000	   0.000000	   0.000000; % SYNC
	2	 0.0	 0.0	 3	   0.000000	   0.000000	   0.000000; % SYNC
	2	 0.0	 0.0	 3	   0.000000	   0.000000	   0.000000; % SYNC
	2	 0.0	 0.0	 3	   0.000000	   0.000000	   0.000000; % SYNC
	2	 0.0	 0.0	 3	   0.000000	   0.000000	   0.000000; % NG
	2	 0.0	 0.0	 3	   0.000000	   0.000000	   0.000000; % SYNC
	2	 0.0	 0.0	 3	   0.000000	   0.000000	   0.000000; % NG
	2	 0.0	 0.0	 3	   0.000000	   0.000000	   0.000000; % SYNC
	2	 0.0	 0.0	 3	   0.000000	   0.000000	   0.000000; % PEL
	2	 0.0	 0.0	 3	   0.000000	   0.000000	   0.000000; % SYNC
	2	 0.0	 0.0	 3	   0.000000	   0.000000	   0.000000; % NG
	2	 0.0	 0.0	 3	   0.000000	   0.000000	   0.000000; % SYNC
	2	 0.0	 0.0	 3	   0.000000	   0.000000	   0.000000; % PEL
	2	 0.0	 0.0	 3	   0.000000	   0.000000	   0.000000; % SYNC
	2	 0.0	 0.0	 3	   0.000000	   0.000000	   0.000000; % SYNC
	2	 0.0	 0.0	 3	   0.000000	   0.000000	   0.000000; % NG
	2	 0.0	 0.0	 3	   0.000000	   0.000000	   0.000000; % NG
	2	 0.0	 0.0	 3	   0.000000	   0.000000	   0.000000; % SYNC
	2	 0.0	 0.0	 3	   0.000000	   0.000000	   0.000000; % SYNC
	2	 0.0	 0.0	 3	   0.000000	   0.000000	   0.000000; % SYNC
...
];

%% branch data
%	fbus	tbus	r	x	b	rateA	rateB	rateC	ratio	angle	status	angmin	angmax
mpc.branch = [
	7	 8	 0.00064	 0.0305	 0.0	 400.0	 400.0	 400.0	 1.0435	 0.6	 1	 -30.0	 30.0;
	26	 28	 0.00036	 0.02519	 0.0	 500.0	 500.0	 500.0	 1.067	 0.0	 1	 -30.0	 30.0;
	27	 29	 0.00036	 0.02519	 0.0	 500.0	 500.0	 500.0	 1.0671	 0.0	 1	 -30.0	 30.0;
	39	 41	 0.00034	 0.02097	 0.0	 500.0	 500.0	 500.0	 1.1102	 0.0	 1	 -30.0	 30.0;
	42	 45	 0.00034	 0.02097	 0.0	 500.0	 500.0	 500.0	 1.0917	 0.0	 1	 -30.0	 30.0;
	54	 56	 0.00081	 0.03	 0.0	 400.0	 400.0	 400.0	 1.0466	 0.0	 1	 -30.0	 30.0;
	89	 91	 0.00075	 0.02444	 -0.00832	 330.0	 330.0	 330.0	 1.0553	 0.0	 1	 -30.0	 30.0;
	90	 92	 0.00075	 0.02469	 -0.008	 330.0	 330.0	 330.0	 1.0552	 0.0	 1	 -30.0	 30.0;
	124	 127	 0.0005	 0.02875	 -0.016	 400.0	 400.0	 400.0	 1.087	 0.0	 1	 -30.0	 30.0;
	148	 149	 0.00064	 0.0305	 0.0	 400.0	 400.0	 400.0	 1.0636	 0.0	 1	 -30.0	 30.0;
	154	 156	 0.000232	 0.023	 0.0	 500.0	 500.0	 500.0	 1.0953	 0.0	 1	 -30.0	 30.0;
	155	 157	 0.000232	 0.023	 0.0	 500.0	 500.0	 500.0	 1.0953	 0.0	 1	 -30.0	 30.0;
	168	 170	 0.00035	 0.02375	 0.0	 500.0	 500.0	 500.0	 1.0767	 0.0	 1	 -30.0	 30.0;
	182	 183	 0.00059	 0.03093	 0.0	 400.0	 400.0	 400.0	 1.0504	 0.0	 1	 -30.0	 30.0;
	189	 191	 0.0004	 0.03	 0.0	 500.0	 500.0	 500.0	 1.0695	 -3.6	 1	 -30.0	 30.0;
	2726	 156	 0.00031	 0.00338	 0.0992	 1386.0	 1386.0	 1386.0	 0.0	 0.0	 1	 -30.0	 30.0;
	2726	 157	 0.00031	 0.00338	 0.0992	 1386.0	 1386.0	 1386.0	 0.0	 0.0	 1	 -30.0	 30.0;
	2727	 67	 0.014341	 0.083531	 0.126034	 385.0	 385.0	 385.0	 0.0	 0.0	 1	 -30.0	 30.0;
	2725	 75	 0.01219	 0.070659	 0.117418	 412.0	 412.0	 412.0	 0.0	 0.0	 1	 -30.0	 30.0;
	2725	 104	 0.011781	 0.07087	 0.116838	 412.0	 412.0	 412.0	 0.0	 0.0	 1	 -30.0	 30.0;
	126	 2724	 0.001525	 0.016837	 0.50576	 1386.0	 1386.0	 1386.0	 0.0	 0.0	 1	 -30.0	 30.0;
	2728	 147	 0.001651	 0.015909	 0.046948	 316.0	 316.0	 316.0	 0.0	 0.0	 1	 -30.0	 30.0;
	2728	 148	 0.001651	 0.015909	 0.046948	 316.0	 316.0	 316.0	 0.0	 0.0	 1	 -30.0	 30.0;
	2729	 47	 0.00188	 0.02287	 0.6432	 831.0	 831.0	 831.0	 0.0	 0.0	 1	 -30.0	 30.0;
	2729	 48	 0.00188	 0.02287	 0.6432	 831.0	 831.0	 831.0	 0.0	 0.0	 1	 -30.0	 30.0;
	81	 2723	 0.002769	 0.031162	 0.89824	 1386.0	 1386.0	 1386.0	 0.0	 0.0	 1	 -30.0	 30.0;
	42	 23	 0.01345	 0.081141	 0.141134	 339.0	 339.0	 339.0	 0.0	 0.0	 1	 -30.0	 30.0;
	26	 89	 0.009091	 0.062401	 0.111417	 453.0	 453.0	 453.0	 0.0	 0.0	 1	 -30.0	 30.0;
	27	 90	 0.00868	 0.06405	 0.096994	 427.0	 427.0	 427.0	 0.0	 0.0	 1	 -30.0	 30.0;
	145	 30	 0.016961	 0.123659	 0.196988	 316.0	 316.0	 316.0	 0.0	 0.0	 1	 -30.0	 30.0;
	134	 33	 0.00512	 0.02618	 0.029621	 301.0	 301.0	 301.0	 0.0	 0.0	 1	 -30.0	 30.0;
	133	 20	 0.01068	 0.061961	 0.094961	 385.0	 385.0	 385.0	 0.0	 0.0	 1	 -30.0	 30.0;
	163	 21	 0.014651	 0.105891	 0.170852	 316.0	 316.0	 316.0	 0.0	 0.0	 1	 -30.0	 30.0;
	40	 108	 0.01488	 0.08161	 0.114805	 314.0	 314.0	 314.0	 0.0	 0.0	 1	 -30.0	 30.0;
	39	 90	 0.011159	 0.07231	 0.103673	 324.0	 324.0	 324.0	 0.0	 0.0	 1	 -30.0	 30.0;
	177	 82	 0.005517	 0.059484	 0.170775	 316.0	 316.0	 316.0	 0.0	 0.0	 1	 -30.0	 30.0;
	202	 164	 0.01176	 0.068289	 0.102802	 324.0	 324.0	 324.0	 0.0	 0.0	 1	 -30.0	 30.0;
	193	 164	 0.016818	 0.089091	 0.129935	 358.0	 358.0	 358.0	 0.0	 0.0	 1	 -30.0	 30.0;
	192	 163	 0.013843	 0.087025	 0.134842	 383.0	 383.0	 383.0	 0.0	 0.0	 1	 -30.0	 30.0;
	206	 166	 0.01676	 0.097169	 0.148685	 269.0	 269.0	 269.0	 0.0	 0.0	 1	 -30.0	 30.0;
	42	 10	 0.01269	 0.074979	 0.130196	 351.0	 351.0	 351.0	 0.0	 0.0	 1	 -30.0	 30.0;
	197	 18	 0.014091	 0.10413	 0.15972	 316.0	 316.0	 316.0	 0.0	 0.0	 1	 -30.0	 30.0;
	99	 54	 0.003719	 0.0438	 0.100962	 457.0	 457.0	 457.0	 0.0	 0.0	 1	 -30.0	 30.0;
	161	 81	 0.00194	 0.02056	 0.51584	 1178.0	 1178.0	 1178.0	 0.0	 0.0	 1	 -30.0	 30.0;
	44	 9	 0.0015	 0.01506	 0.4032	 1386.0	 1386.0	 1386.0	 0.0	 0.0	 1	 -30.0	 30.0;
	184	 149	 0.00294	 0.03463	 0.9216	 693.0	 693.0	 693.0	 0.0	 0.0	 1	 -30.0	 30.0;
	120	 56	 0.00169	 0.01994	 0.50624	 831.0	 831.0	 831.0	 0.0	 0.0	 1	 -30.0	 30.0;
	29	 92	 0.00137	 0.01625	 0.41184	 1386.0	 1386.0	 1386.0	 0.0	 0.0	 1	 -30.0	 30.0;
	28	 122	 0.00231	 0.02769	 0.70144	 1386.0	 1386.0	 1386.0	 0.0	 0.0	 1	 -30.0	 30.0;
	25	 191	 0.00207	 0.02474	 0.664	 1386.0	 1386.0	 1386.0	 0.0	 0.0	 1	 -30.0	 30.0;
	119	 63	 0.0015	 0.01788	 0.4512	 831.0	 831.0	 831.0	 0.0	 0.0	 1	 -30.0	 30.0;
	121	 63	 0.00469	 0.05544	 1.4048	 831.0	 831.0	 831.0	 0.0	 0.0	 1	 -30.0	 30.0;
	81	 31	 0.00331	 0.03425	 0.85888	 977.0	 977.0	 977.0	 0.0	 0.0	 1	 -30.0	 30.0;
	91	 28	 0.00219	 0.02369	 0.59584	 1178.0	 1178.0	 1178.0	 0.0	 0.0	 1	 -30.0	 30.0;
	12	 4	 0.01674	 0.09711	 0.144232	 427.0	 427.0	 427.0	 0.0	 0.0	 1	 -30.0	 30.0;
	30	 11	 0.0057	 0.0407	 0.06021	 316.0	 316.0	 316.0	 0.0	 0.0	 1	 -30.0	 30.0;
	24	 4	 0.004419	 0.032229	 0.049852	 383.0	 383.0	 383.0	 0.0	 0.0	 1	 -30.0	 30.0;
	17	 7	 0.014591	 0.11219	 0.165528	 383.0	 383.0	 383.0	 0.0	 0.0	 1	 -30.0	 30.0;
	21	 10	 0.01211	 0.087419	 0.140166	 316.0	 316.0	 316.0	 0.0	 0.0	 1	 -30.0	 30.0;
	26	 5	 0.009773	 0.050516	 0.088959	 377.0	 377.0	 377.0	 0.0	 0.0	 1	 -30.0	 30.0;
	17	 3	 0.01068	 0.07895	 0.245194	 274.0	 274.0	 274.0	 0.0	 0.0	 1	 -30.0	 30.0;
	26	 19	 0.0057	 0.039521	 0.075533	 440.0	 440.0	 440.0	 0.0	 0.0	 1	 -30.0	 30.0;
	27	 20	 0.0057	 0.039521	 0.075533	 440.0	 440.0	 440.0	 0.0	 0.0	 1	 -30.0	 30.0;
	13	 6	 0.00525	 0.03988	 0.061952	 316.0	 316.0	 316.0	 0.0	 0.0	 1	 -30.0	 30.0;
	13	 12	 2.1e-05	 0.000207	 0.0	 316.0	 316.0	 316.0	 0.0	 0.0	 1	 -30.0	 30.0;
	32	 13	 0.00093	 0.00651	 0.011132	 316.0	 316.0	 316.0	 0.0	 0.0	 1	 -30.0	 30.0;
	23	 11	 0.00205	 0.01326	 0.022429	 385.0	 385.0	 385.0	 0.0	 0.0	 1	 -30.0	 30.0;
	33	 5	 0.007831	 0.043	 0.04962	 301.0	 301.0	 301.0	 0.0	 0.0	 1	 -30.0	 30.0;
	19	 4	 0.00293	 0.01599	 0.024781	 324.0	 324.0	 324.0	 0.0	 0.0	 1	 -30.0	 30.0;
	26	 1	 0.00155	 0.01169	 0.018198	 633.0	 633.0	 633.0	 0.0	 0.0	 1	 -30.0	 30.0;
	27	 2	 0.00155	 0.01169	 0.018198	 633.0	 633.0	 633.0	 0.0	 0.0	 1	 -30.0	 30.0;
	27	 24	 0.003841	 0.028531	 0.045883	 392.0	 392.0	 392.0	 0.0	 0.0	 1	 -30.0	 30.0;
	25	 9	 0.00298	 0.03418	 0.93504	 831.0	 831.0	 831.0	 0.0	 0.0	 1	 -30.0	 30.0;
	28	 25	 0.00358	 0.04262	 1.0944	 1386.0	 1386.0	 1386.0	 0.0	 0.0	 1	 -30.0	 30.0;
	14	 29	 0.00336	 0.03977	 1.02163	 1316.0	 1316.0	 1316.0	 0.0	 0.0	 1	 -30.0	 30.0;
	8	 15	 0.00299	 0.03675	 0.9184	 1150.0	 1150.0	 1150.0	 0.0	 0.0	 1	 -30.0	 30.0;
	8	 14	 0.00112	 0.01329	 0.341248	 1150.0	 1150.0	 1150.0	 0.0	 0.0	 1	 -30.0	 30.0;
	31	 29	 0.00075	 0.009	 0.22848	 1150.0	 1150.0	 1150.0	 0.0	 0.0	 1	 -30.0	 30.0;
	62	 58	 0.010479	 0.060969	 0.092047	 269.0	 269.0	 269.0	 0.0	 0.0	 1	 -30.0	 30.0;
	60	 55	 0.00882	 0.065641	 0.100662	 274.0	 274.0	 274.0	 0.0	 0.0	 1	 -30.0	 30.0;
	66	 34	 0.011219	 0.065581	 0.098349	 274.0	 274.0	 274.0	 0.0	 0.0	 1	 -30.0	 30.0;
	50	 34	 0.01163	 0.07031	 0.105802	 341.0	 341.0	 341.0	 0.0	 0.0	 1	 -30.0	 30.0;
	58	 42	 0.00545	 0.040211	 0.066986	 404.0	 404.0	 404.0	 0.0	 0.0	 1	 -30.0	 30.0;
	59	 43	 0.00545	 0.040211	 0.066986	 404.0	 404.0	 404.0	 0.0	 0.0	 1	 -30.0	 30.0;
	59	 34	 0.00837	 0.04868	 0.073481	 379.0	 379.0	 379.0	 0.0	 0.0	 1	 -30.0	 30.0;
	67	 51	 0.003159	 0.02076	 0.03146	 385.0	 385.0	 385.0	 0.0	 0.0	 1	 -30.0	 30.0;
	51	 38	 0.006979	 0.051961	 0.079666	 316.0	 316.0	 316.0	 0.0	 0.0	 1	 -30.0	 30.0;
	36	 55	 0.00374	 0.027831	 0.042689	 274.0	 274.0	 274.0	 0.0	 0.0	 1	 -30.0	 30.0;
	37	 35	 0.00769	 0.057271	 0.087894	 316.0	 316.0	 316.0	 0.0	 0.0	 1	 -30.0	 30.0;
	54	 37	 0.00556	 0.04145	 0.063598	 383.0	 383.0	 383.0	 0.0	 0.0	 1	 -30.0	 30.0;
	66	 36	 0.004521	 0.03368	 0.051691	 392.0	 392.0	 392.0	 0.0	 0.0	 1	 -30.0	 30.0;
	66	 65	 0.00151	 0.008781	 0.013165	 341.0	 341.0	 341.0	 0.0	 0.0	 1	 -30.0	 30.0;
	61	 42	 0.00574	 0.042831	 0.065727	 404.0	 404.0	 404.0	 0.0	 0.0	 1	 -30.0	 30.0;
	62	 43	 0.00707	 0.045409	 0.069309	 314.0	 314.0	 314.0	 0.0	 0.0	 1	 -30.0	 30.0;
	61	 39	 0.01213	 0.062151	 0.093712	 314.0	 314.0	 314.0	 0.0	 0.0	 1	 -30.0	 30.0;
	60	 40	 0.002479	 0.017979	 0.027588	 316.0	 316.0	 316.0	 0.0	 0.0	 1	 -30.0	 30.0;
	46	 39	 0.002401	 0.01494	 0.022525	 341.0	 341.0	 341.0	 0.0	 0.0	 1	 -30.0	 30.0;
	49	 45	 0.00167	 0.0189	 0.54176	 1150.0	 1150.0	 1150.0	 0.0	 0.0	 1	 -30.0	 30.0;
	57	 53	 0.00109	 0.01277	 0.34176	 1150.0	 1150.0	 1150.0	 0.0	 0.0	 1	 -30.0	 30.0;
	41	 57	 0.002259	 0.026439	 0.70784	 1150.0	 1150.0	 1150.0	 0.0	 0.0	 1	 -30.0	 30.0;
	63	 57	 0.00094	 0.01097	 0.29376	 1393.0	 1393.0	 1393.0	 0.0	 0.0	 1	 -30.0	 30.0;
	47	 64	 0.00113	 0.01406	 0.37488	 1386.0	 1386.0	 1386.0	 0.0	 0.0	 1	 -30.0	 30.0;
	52	 44	 0.00176	 0.02144	 0.57344	 1150.0	 1150.0	 1150.0	 0.0	 0.0	 1	 -30.0	 30.0;
	95	 124	 0.004876	 0.033616	 0.059609	 404.0	 404.0	 404.0	 0.0	 0.0	 1	 -30.0	 30.0;
	74	 105	 0.01093	 0.059194	 0.08439	 246.0	 246.0	 246.0	 0.0	 0.0	 1	 -30.0	 30.0;
	105	 93	 0.001942	 0.013926	 0.022845	 404.0	 404.0	 404.0	 0.0	 0.0	 1	 -30.0	 30.0;
	78	 84	 0.004318	 0.029752	 0.05264	 316.0	 316.0	 316.0	 0.0	 0.0	 1	 -30.0	 30.0;
	130	 129	 0.000661	 0.004959	 0.007579	 379.0	 379.0	 379.0	 0.0	 0.0	 1	 -30.0	 30.0;
	106	 130	 0.005372	 0.040393	 0.060055	 379.0	 379.0	 379.0	 0.0	 0.0	 1	 -30.0	 30.0;
	90	 130	 0.000826	 0.005248	 0.008683	 301.0	 301.0	 301.0	 0.0	 0.0	 1	 -30.0	 30.0;
	99	 118	 0.015888	 0.087603	 0.116818	 314.0	 314.0	 314.0	 0.0	 0.0	 1	 -30.0	 30.0;
	80	 112	 0.002169	 0.014587	 0.025749	 269.0	 269.0	 269.0	 0.0	 0.0	 1	 -30.0	 30.0;
	115	 100	 0.017727	 0.116777	 0.163611	 246.0	 246.0	 246.0	 0.0	 0.0	 1	 -30.0	 30.0;
	125	 73	 0.00593	 0.04093	 0.072145	 404.0	 404.0	 404.0	 0.0	 0.0	 1	 -30.0	 30.0;
	107	 89	 0.003905	 0.028471	 0.044983	 383.0	 383.0	 383.0	 0.0	 0.0	 1	 -30.0	 30.0;
	117	 78	 0.008161	 0.042417	 0.061197	 356.0	 356.0	 356.0	 0.0	 0.0	 1	 -30.0	 30.0;
	118	 77	 0.008161	 0.042417	 0.061197	 356.0	 356.0	 356.0	 0.0	 0.0	 1	 -30.0	 30.0;
	78	 75	 0.005186	 0.038388	 0.058748	 453.0	 453.0	 453.0	 0.0	 0.0	 1	 -30.0	 30.0;
	77	 72	 0.002128	 0.014029	 0.022603	 301.0	 301.0	 301.0	 0.0	 0.0	 1	 -30.0	 30.0;
	113	 77	 0.004628	 0.027748	 0.046115	 324.0	 324.0	 324.0	 0.0	 0.0	 1	 -30.0	 30.0;
	102	 71	 0.011219	 0.070744	 0.115705	 246.0	 246.0	 246.0	 0.0	 0.0	 1	 -30.0	 30.0;
	109	 116	 0.006012	 0.041467	 0.073636	 383.0	 383.0	 383.0	 0.0	 0.0	 1	 -30.0	 30.0;
	90	 68	 0.002066	 0.012789	 0.020551	 269.0	 269.0	 269.0	 0.0	 0.0	 1	 -30.0	 30.0;
	85	 89	 0.001364	 0.009731	 0.016243	 453.0	 453.0	 453.0	 0.0	 0.0	 1	 -30.0	 30.0;
	128	 86	 0.000579	 0.004112	 0.007008	 404.0	 404.0	 404.0	 0.0	 0.0	 1	 -30.0	 30.0;
	131	 75	 0.000847	 0.00624	 0.009544	 457.0	 457.0	 457.0	 0.0	 0.0	 1	 -30.0	 30.0;
	132	 76	 0.000847	 0.00626	 0.009477	 457.0	 457.0	 457.0	 0.0	 0.0	 1	 -30.0	 30.0;
	101	 76	 0.001591	 0.011116	 0.019128	 453.0	 453.0	 453.0	 0.0	 0.0	 1	 -30.0	 30.0;
	124	 103	 0.003141	 0.021591	 0.038391	 404.0	 404.0	 404.0	 0.0	 0.0	 1	 -30.0	 30.0;
	125	 110	 0.004545	 0.03157	 0.055312	 316.0	 316.0	 316.0	 0.0	 0.0	 1	 -30.0	 30.0;
	103	 83	 0.001446	 0.009917	 0.017598	 316.0	 316.0	 316.0	 0.0	 0.0	 1	 -30.0	 30.0;
	104	 94	 0.003822	 0.026674	 0.046154	 316.0	 316.0	 316.0	 0.0	 0.0	 1	 -30.0	 30.0;
	111	 79	 0.007769	 0.041281	 0.063907	 269.0	 269.0	 269.0	 0.0	 0.0	 1	 -30.0	 30.0;
	88	 77	 0.004463	 0.030413	 0.048671	 246.0	 246.0	 246.0	 0.0	 0.0	 1	 -30.0	 30.0;
	116	 107	 0.005888	 0.035062	 0.052349	 246.0	 246.0	 246.0	 0.0	 0.0	 1	 -30.0	 30.0;
	108	 98	 0.003161	 0.023409	 0.036165	 316.0	 316.0	 316.0	 0.0	 0.0	 1	 -30.0	 30.0;
	115	 78	 0.001839	 0.012603	 0.022399	 316.0	 316.0	 316.0	 0.0	 0.0	 1	 -30.0	 30.0;
	106	 87	 0.001715	 0.009607	 0.014239	 301.0	 301.0	 301.0	 0.0	 0.0	 1	 -30.0	 30.0;
	97	 78	 0.003409	 0.024421	 0.039969	 246.0	 246.0	 246.0	 0.0	 0.0	 1	 -30.0	 30.0;
	116	 77	 0.001839	 0.012603	 0.02239	 316.0	 316.0	 316.0	 0.0	 0.0	 1	 -30.0	 30.0;
	82	 96	 0.005702	 0.041488	 0.066172	 404.0	 404.0	 404.0	 0.0	 0.0	 1	 -30.0	 30.0;
	123	 117	 0.004587	 0.024628	 0.036165	 314.0	 314.0	 314.0	 0.0	 0.0	 1	 -30.0	 30.0;
	123	 109	 0.002149	 0.013327	 0.022109	 246.0	 246.0	 246.0	 0.0	 0.0	 1	 -30.0	 30.0;
	99	 70	 0.000785	 0.004876	 0.00726	 269.0	 269.0	 269.0	 0.0	 0.0	 1	 -30.0	 30.0;
	100	 69	 0.000785	 0.004876	 0.007241	 269.0	 269.0	 269.0	 0.0	 0.0	 1	 -30.0	 30.0;
	92	 126	 0.002413	 0.027544	 0.767968	 831.0	 831.0	 831.0	 0.0	 0.0	 1	 -30.0	 30.0;
	81	 126	 0.002131	 0.024319	 0.67744	 1386.0	 1386.0	 1386.0	 0.0	 0.0	 1	 -30.0	 30.0;
	121	 114	 0.000913	 0.0104	 0.289888	 1150.0	 1150.0	 1150.0	 0.0	 0.0	 1	 -30.0	 30.0;
	122	 120	 0.003119	 0.035631	 0.991072	 831.0	 831.0	 831.0	 0.0	 0.0	 1	 -30.0	 30.0;
	114	 127	 0.000919	 0.010512	 0.292928	 1150.0	 1150.0	 1150.0	 0.0	 0.0	 1	 -30.0	 30.0;
	172	 155	 0.01545	 0.073349	 0.126614	 427.0	 427.0	 427.0	 0.0	 0.0	 1	 -30.0	 30.0;
	173	 154	 0.01545	 0.073349	 0.126614	 427.0	 427.0	 427.0	 0.0	 0.0	 1	 -30.0	 30.0;
	175	 154	 0.01457	 0.07955	 0.14007	 324.0	 324.0	 324.0	 0.0	 0.0	 1	 -30.0	 30.0;
	176	 155	 0.01457	 0.07955	 0.14007	 324.0	 324.0	 324.0	 0.0	 0.0	 1	 -30.0	 30.0;
	175	 143	 0.006031	 0.04401	 0.069793	 316.0	 316.0	 316.0	 0.0	 0.0	 1	 -30.0	 30.0;
	164	 139	 0.011031	 0.08057	 0.124127	 404.0	 404.0	 404.0	 0.0	 0.0	 1	 -30.0	 30.0;
	136	 154	 0.005831	 0.04231	 0.070664	 383.0	 383.0	 383.0	 0.0	 0.0	 1	 -30.0	 30.0;
	169	 172	 0.01849	 0.095599	 0.159139	 305.0	 305.0	 305.0	 0.0	 0.0	 1	 -30.0	 30.0;
	151	 173	 0.010581	 0.053	 0.088475	 385.0	 385.0	 385.0	 0.0	 0.0	 1	 -30.0	 30.0;
	153	 155	 0.012521	 0.091359	 0.145394	 453.0	 453.0	 453.0	 0.0	 0.0	 1	 -30.0	 30.0;
	135	 136	 0.00506	 0.036539	 0.063598	 305.0	 305.0	 305.0	 0.0	 0.0	 1	 -30.0	 30.0;
	147	 142	 0.01043	 0.077891	 0.122065	 383.0	 383.0	 383.0	 0.0	 0.0	 1	 -30.0	 30.0;
	152	 180	 0.007702	 0.056917	 0.086733	 316.0	 316.0	 316.0	 0.0	 0.0	 1	 -30.0	 30.0;
	152	 179	 0.002256	 0.016674	 0.02541	 333.0	 333.0	 333.0	 0.0	 0.0	 1	 -30.0	 30.0;
	174	 146	 0.009147	 0.089554	 0.215196	 246.0	 246.0	 246.0	 0.0	 0.0	 1	 -30.0	 30.0;
	174	 168	 0.00244	 0.01318	 0.021296	 341.0	 341.0	 341.0	 0.0	 0.0	 0	 -30.0	 30.0;
	168	 139	 0.00355	 0.02593	 0.041237	 404.0	 404.0	 404.0	 0.0	 0.0	 1	 -30.0	 30.0;
	169	 166	 0.01312	 0.076219	 0.116644	 324.0	 324.0	 324.0	 0.0	 0.0	 1	 -30.0	 30.0;
	168	 151	 0.009341	 0.05225	 0.087701	 305.0	 305.0	 305.0	 0.0	 0.0	 1	 -30.0	 30.0;
	145	 134	 0.006141	 0.032521	 0.052456	 356.0	 356.0	 356.0	 0.0	 0.0	 1	 -30.0	 30.0;
	146	 133	 0.00438	 0.03188	 0.050723	 453.0	 453.0	 453.0	 0.0	 0.0	 1	 -30.0	 30.0;
	163	 146	 0.000479	 0.00331	 0.005711	 404.0	 404.0	 404.0	 0.0	 0.0	 1	 -30.0	 30.0;
	164	 145	 0.000479	 0.00331	 0.005711	 404.0	 404.0	 404.0	 0.0	 0.0	 1	 -30.0	 30.0;
	153	 142	 0.010539	 0.076859	 0.122355	 316.0	 316.0	 316.0	 0.0	 0.0	 1	 -30.0	 30.0;
	158	 147	 0.00469	 0.034651	 0.053821	 383.0	 383.0	 383.0	 0.0	 0.0	 1	 -30.0	 30.0;
	148	 140	 0.006469	 0.0413	 0.069212	 383.0	 383.0	 383.0	 0.0	 0.0	 1	 -30.0	 30.0;
	167	 140	 0.00105	 0.007211	 0.01028	 316.0	 316.0	 316.0	 0.0	 0.0	 1	 -30.0	 30.0;
	167	 158	 0.006099	 0.044831	 0.070954	 316.0	 316.0	 316.0	 0.0	 0.0	 1	 -30.0	 30.0;
	175	 135	 0.002211	 0.01655	 0.024781	 316.0	 316.0	 316.0	 0.0	 0.0	 1	 -30.0	 30.0;
	177	 176	 0.005169	 0.036979	 0.058951	 316.0	 316.0	 316.0	 0.0	 0.0	 1	 -30.0	 30.0;
	180	 172	 0.002401	 0.017789	 0.027588	 381.0	 381.0	 381.0	 0.0	 0.0	 1	 -30.0	 30.0;
	156	 137	 0.00274	 0.02696	 0.70592	 977.0	 977.0	 977.0	 0.0	 0.0	 1	 -30.0	 30.0;
	162	 138	 0.0017	 0.01733	 0.45632	 915.0	 915.0	 915.0	 0.0	 0.0	 1	 -30.0	 30.0;
	160	 161	 0.00136	 0.01574	 0.433664	 1469.0	 1469.0	 1469.0	 0.0	 0.0	 1	 -30.0	 30.0;
	170	 150	 0.00371	 0.04326	 1.18688	 693.0	 693.0	 693.0	 0.0	 0.0	 1	 -30.0	 30.0;
	187	 192	 0.01882	 0.137581	 0.25381	 299.0	 299.0	 299.0	 0.0	 0.0	 1	 -30.0	 30.0;
	196	 202	 0.02756	 0.16014	 0.242871	 269.0	 269.0	 269.0	 0.0	 0.0	 1	 -30.0	 30.0;
	188	 207	 0.01905	 0.11132	 0.167851	 269.0	 269.0	 269.0	 0.0	 0.0	 1	 -30.0	 30.0;
	190	 193	 0.00795	 0.05919	 0.090798	 316.0	 316.0	 316.0	 0.0	 0.0	 1	 -30.0	 30.0;
	192	 181	 0.0018	 0.021141	 0.051498	 633.0	 633.0	 633.0	 0.0	 0.0	 1	 -30.0	 30.0;
	201	 203	 0.00731	 0.055789	 0.083635	 274.0	 274.0	 274.0	 0.0	 0.0	 1	 -30.0	 30.0;
	189	 200	 0.00564	 0.041961	 0.064372	 274.0	 274.0	 274.0	 0.0	 0.0	 1	 -30.0	 30.0;
	207	 182	 0.0057	 0.04236	 0.129712	 366.0	 366.0	 366.0	 0.0	 0.0	 1	 -30.0	 30.0;
	199	 183	 0.00131	 0.01548	 0.41152	 1150.0	 1150.0	 1150.0	 0.0	 0.0	 1	 -30.0	 30.0;
...